@<TRIPOS>MOLECULE
*****
 31 34 0 0 0
SMALL
GASTEIGER

@<TRIPOS>ATOM
      1 N         139.4696  138.4493  164.1494 N.3     1  UNL1       -0.2725
      2 C         140.8158  138.8587  164.6691 C.3     1  UNL1        0.0725
      3 C         140.9470  139.4142  166.0563 C.3     1  UNL1        0.0234
      4 C         139.7319  139.5602  166.9237 C.3     1  UNL1        0.0464
      5 C         138.3858  139.1507  166.4040 C.3     1  UNL1        0.0234
      6 C         138.2547  138.5953  165.0168 C.3     1  UNL1        0.0725
      7 C         139.8631  140.1157  168.3109 C.ar    1  UNL1        0.1003
      8 N         138.9306  139.8554  169.4567 N.ar    1  UNL1       -0.0814
      9 O         139.4410  140.6079  170.6497 O.2     1  UNL1       -0.3536
     10 C         140.6889  141.3332  170.2413 C.ar    1  UNL1        0.1787
     11 C         141.6213  142.2314  170.9988 C.ar    1  UNL1        0.0698
     12 C         142.8145  142.8253  170.3108 C.ar    1  UNL1        0.1433
     13 F         143.7470  143.7235  171.0684 F       1  UNL1       -0.2041
     14 C         143.0754  142.5211  168.8653 C.ar    1  UNL1        0.0299
     15 C         142.1429  141.6230  168.1078 C.ar    1  UNL1        0.0067
     16 C         140.9497  141.0291  168.7958 C.ar    1  UNL1        0.0540
     17 C         139.3385  137.8938  162.7622 C.3     1  UNL1        0.0759
     18 C         138.0889  138.1412  161.9702 C.3     1  UNL1        0.0646
     19 C         137.8525  139.4826  161.3418 C.3     1  UNL1        0.2068
     20 O         137.6115  140.6840  162.2069 O.3     1  UNL1       -0.4754
     21 C         141.0957  142.9564  163.9233 C.ar    1  UNL1        0.0505
     22 C         139.8415  142.7863  164.7283 C.ar    1  UNL1        0.0178
     23 C         138.6801  142.0289  164.1562 C.ar    1  UNL1        0.0382
     24 C         138.7729  141.4415  162.7791 C.ar    1  UNL1        0.1386
     25 C         140.0271  141.6115  161.9741 C.ar    1  UNL1        0.0382
     26 C         141.1885  142.3690  162.5462 C.ar    1  UNL1        0.0178
     27 C         144.6499  143.7360  165.5076 C.3     1  UNL1        0.0949
     28 C         143.4883  142.9786  164.9356 C.2     1  UNL1        0.2266
     29 O         143.5581  141.4860  164.8037 O.2     1  UNL1       -0.2748
     30 N         142.2572  143.7138  164.4954 N.am    1  UNL1       -0.2839
     31 H         142.2115  144.6935  164.5819 H       1  UNL1        0.1549
@<TRIPOS>BOND
     1    27    28    1
     2    28    29    2
     3    28    30   am
     4    30    21    1
     5    21    22   ar
     6    22    23   ar
     7    23    24   ar
     8    24    20    1
     9    20    19    1
    10    19    18    1
    11    18    17    1
    12    17     1    1
    13     1     2    1
    14     2     3    1
    15     3     4    1
    16     4     7    1
    17     7     8   ar
    18     8     9   ar
    19     9    10   ar
    20    10    11   ar
    21    11    12   ar
    22    12    13    1
    23    12    14   ar
    24    14    15   ar
    25    15    16   ar
    26     4     5    1
    27     5     6    1
    28    24    25   ar
    29    25    26   ar
    30    26    21   ar
    31     6     1    1
    32    16     7   ar
    33    16    10   ar
    34    30    31    1
@<TRIPOS>MOLECULE
*****
 31 34 0 0 0
SMALL
GASTEIGER

@<TRIPOS>ATOM
      1 N         141.9196  143.7868  162.0852 N.3     1  UNL1       -0.2725
      2 C         141.4552  142.3623  162.0159 C.3     1  UNL1        0.0725
      3 C         141.6244  141.4596  163.2019 C.3     1  UNL1        0.0234
      4 C         142.2582  141.9817  164.4574 C.3     1  UNL1        0.0464
      5 C         142.7226  143.4062  164.5266 C.3     1  UNL1        0.0234
      6 C         142.5533  144.3088  163.3406 C.3     1  UNL1        0.0725
      7 C         142.4274  141.0791  165.6434 C.ar    1  UNL1        0.1003
      8 N         143.1327  139.7553  165.6504 N.ar    1  UNL1       -0.0814
      9 O         143.0622  139.1999  167.0420 O.2     1  UNL1       -0.3536
     10 C         142.3133  140.1804  167.8950 C.ar    1  UNL1        0.1787
     11 C         141.9380  140.1657  169.3472 C.ar    1  UNL1        0.0698
     12 C         141.1703  141.3125  169.9350 C.ar    1  UNL1        0.1433
     13 F         140.7949  141.2979  171.3872 F       1  UNL1       -0.2041
     14 C         140.7779  142.4739  169.0706 C.ar    1  UNL1        0.0299
     15 C         141.1533  142.4886  167.6184 C.ar    1  UNL1        0.0067
     16 C         141.9210  141.3418  167.0307 C.ar    1  UNL1        0.0540
     17 C         141.7504  144.6895  160.8992 C.3     1  UNL1        0.0759
     18 C         140.4836  145.4744  160.7287 C.3     1  UNL1        0.0646
     19 C         139.6942  145.8950  161.9329 C.3     1  UNL1        0.2068
     20 O         138.3530  145.2800  162.2027 O.3     1  UNL1       -0.4754
     21 C         138.0722  141.3874  164.4429 C.ar    1  UNL1        0.0505
     22 C         137.5706  141.4787  163.0322 C.ar    1  UNL1        0.0178
     23 C         137.6642  142.7762  162.2855 C.ar    1  UNL1        0.0382
     24 C         138.2594  143.9824  162.9494 C.ar    1  UNL1        0.1386
     25 C         138.7610  143.8912  164.3601 C.ar    1  UNL1        0.0382
     26 C         138.6674  142.5936  165.1068 C.ar    1  UNL1        0.0178
     27 C         138.6222  137.5850  165.4374 C.3     1  UNL1        0.0949
     28 C         138.7157  138.8825  164.6906 C.2     1  UNL1        0.2266
     29 O         139.5463  138.9726  163.4447 O.2     1  UNL1       -0.2748
     30 N         137.9787  140.0899  165.1897 N.am    1  UNL1       -0.2839
     31 H         137.4336  140.0307  166.0074 H       1  UNL1        0.1549
@<TRIPOS>BOND
     1    27    28    1
     2    28    29    2
     3    28    30   am
     4    30    21    1
     5    21    22   ar
     6    22    23   ar
     7    23    24   ar
     8    24    20    1
     9    20    19    1
    10    19    18    1
    11    18    17    1
    12    17     1    1
    13     1     2    1
    14     2     3    1
    15     3     4    1
    16     4     7    1
    17     7     8   ar
    18     8     9   ar
    19     9    10   ar
    20    10    11   ar
    21    11    12   ar
    22    12    13    1
    23    12    14   ar
    24    14    15   ar
    25    15    16   ar
    26     4     5    1
    27     5     6    1
    28    24    25   ar
    29    25    26   ar
    30    26    21   ar
    31     6     1    1
    32    16     7   ar
    33    16    10   ar
    34    30    31    1
@<TRIPOS>MOLECULE
*****
 31 34 0 0 0
SMALL
GASTEIGER

@<TRIPOS>ATOM
      1 N         143.9974  140.4681  163.1724 N.3     1  UNL1       -0.2725
      2 C         142.9344  141.3815  163.7068 C.3     1  UNL1        0.0725
      3 C         142.4699  141.2421  165.1263 C.3     1  UNL1        0.0234
      4 C         143.0684  140.1891  166.0113 C.3     1  UNL1        0.0464
      5 C         144.1313  139.2757  165.4768 C.3     1  UNL1        0.0234
      6 C         144.5958  139.4152  164.0573 C.3     1  UNL1        0.0725
      7 C         142.6038  140.0496  167.4307 C.ar    1  UNL1        0.1003
      8 N         142.9118  138.9057  168.3508 N.ar    1  UNL1       -0.0814
      9 O         142.2480  139.1788  169.6680 O.2     1  UNL1       -0.3536
     10 C         141.5300  140.4914  169.5619 C.ar    1  UNL1        0.1787
     11 C         140.7043  141.2661  170.5458 C.ar    1  UNL1        0.0698
     12 C         140.0985  142.5791  170.1469 C.ar    1  UNL1        0.1433
     13 F         139.2727  143.3539  171.1308 F       1  UNL1       -0.2041
     14 C         140.3184  143.1173  168.7642 C.ar    1  UNL1        0.0299
     15 C         141.1441  142.3426  167.7803 C.ar    1  UNL1        0.0067
     16 C         141.7499  141.0297  168.1792 C.ar    1  UNL1        0.0540
     17 C         144.4619  140.6075  161.7529 C.3     1  UNL1        0.0759
     18 C         143.5919  140.1290  160.6286 C.3     1  UNL1        0.0646
     19 C         143.4430  138.6591  160.3690 C.3     1  UNL1        0.2068
     20 O         142.0759  138.0507  160.2651 O.3     1  UNL1       -0.4754
     21 C         139.4906  137.6863  163.9302 C.ar    1  UNL1        0.0505
     22 C         140.9739  137.4905  164.0363 C.ar    1  UNL1        0.0178
     23 C         141.8357  137.6120  162.8145 C.ar    1  UNL1        0.0382
     24 C         141.2141  137.9292  161.4868 C.ar    1  UNL1        0.1386
     25 C         139.7308  138.1250  161.3807 C.ar    1  UNL1        0.0382
     26 C         138.8690  138.0035  162.6024 C.ar    1  UNL1        0.0178
     27 C         137.6112  138.6124  167.3006 C.3     1  UNL1        0.0949
     28 C         138.4730  138.7337  166.0789 C.2     1  UNL1        0.2266
     29 O         139.1790  140.0241  165.7844 O.2     1  UNL1       -0.2748
     30 N         138.6287  137.5649  165.1519 N.am    1  UNL1       -0.2839
     31 H         138.1654  136.7180  165.3452 H       1  UNL1        0.1549
@<TRIPOS>BOND
     1    27    28    1
     2    28    29    2
     3    28    30   am
     4    30    21    1
     5    21    22   ar
     6    22    23   ar
     7    23    24   ar
     8    24    20    1
     9    20    19    1
    10    19    18    1
    11    18    17    1
    12    17     1    1
    13     1     2    1
    14     2     3    1
    15     3     4    1
    16     4     7    1
    17     7     8   ar
    18     8     9   ar
    19     9    10   ar
    20    10    11   ar
    21    11    12   ar
    22    12    13    1
    23    12    14   ar
    24    14    15   ar
    25    15    16   ar
    26     4     5    1
    27     5     6    1
    28    24    25   ar
    29    25    26   ar
    30    26    21   ar
    31     6     1    1
    32    16     7   ar
    33    16    10   ar
    34    30    31    1
@<TRIPOS>MOLECULE
*****
 31 34 0 0 0
SMALL
GASTEIGER

@<TRIPOS>ATOM
      1 N         143.2495  138.9171  161.6094 N.3     1  UNL1       -0.2725
      2 C         142.3247  137.9783  162.3260 C.3     1  UNL1        0.0725
      3 C         142.2242  138.0209  163.8220 C.3     1  UNL1        0.0234
      4 C         143.0485  139.0023  164.6015 C.3     1  UNL1        0.0464
      5 C         143.9731  139.9411  163.8849 C.3     1  UNL1        0.0234
      6 C         144.0737  139.8985  162.3889 C.3     1  UNL1        0.0725
      7 C         142.9479  139.0449  166.0975 C.ar    1  UNL1        0.1003
      8 N         143.7407  138.2095  167.0586 N.ar    1  UNL1       -0.0814
      9 O         143.3197  138.5787  168.4501 O.2     1  UNL1       -0.3536
     10 C         142.2667  139.6421  168.3491 C.ar    1  UNL1        0.1787
     11 C         141.4874  140.3853  169.3932 C.ar    1  UNL1        0.0698
     12 C         140.4783  141.4167  168.9834 C.ar    1  UNL1        0.1433
     13 F         139.6989  142.1600  170.0275 F       1  UNL1       -0.2041
     14 C         140.2485  141.7048  167.5293 C.ar    1  UNL1        0.0299
     15 C         141.0278  140.9616  166.4852 C.ar    1  UNL1        0.0067
     16 C         142.0369  139.9303  166.8951 C.ar    1  UNL1        0.0540
     17 C         143.3500  138.8746  160.1134 C.3     1  UNL1        0.0759
     18 C         142.2679  138.2194  159.3073 C.3     1  UNL1        0.0646
     19 C         141.1920  139.0539  158.6778 C.3     1  UNL1        0.2068
     20 O         140.6996  140.2898  159.3707 O.3     1  UNL1       -0.4754
     21 C         138.7079  139.9716  163.3933 C.ar    1  UNL1        0.0505
     22 C         139.7896  140.9865  163.1703 C.ar    1  UNL1        0.0178
     23 C         140.4535  141.0926  161.8294 C.ar    1  UNL1        0.0382
     24 C         140.0357  140.1837  160.7116 C.ar    1  UNL1        0.1386
     25 C         138.9540  139.1688  160.9347 C.ar    1  UNL1        0.0382
     26 C         138.2901  139.0627  162.2756 C.ar    1  UNL1        0.0178
     27 C         137.6815  138.5947  166.9712 C.3     1  UNL1        0.0949
     28 C         138.3454  138.7009  165.6303 C.2     1  UNL1        0.2266
     29 O         139.3109  137.6425  165.1855 O.2     1  UNL1       -0.2748
     30 N         138.0439  139.8655  164.7342 N.am    1  UNL1       -0.2839
     31 H         137.4103  140.5601  165.0261 H       1  UNL1        0.1549
@<TRIPOS>BOND
     1    27    28    1
     2    28    29    2
     3    28    30   am
     4    30    21    1
     5    21    22   ar
     6    22    23   ar
     7    23    24   ar
     8    24    20    1
     9    20    19    1
    10    19    18    1
    11    18    17    1
    12    17     1    1
    13     1     2    1
    14     2     3    1
    15     3     4    1
    16     4     7    1
    17     7     8   ar
    18     8     9   ar
    19     9    10   ar
    20    10    11   ar
    21    11    12   ar
    22    12    13    1
    23    12    14   ar
    24    14    15   ar
    25    15    16   ar
    26     4     5    1
    27     5     6    1
    28    24    25   ar
    29    25    26   ar
    30    26    21   ar
    31     6     1    1
    32    16     7   ar
    33    16    10   ar
    34    30    31    1
@<TRIPOS>MOLECULE
*****
 31 34 0 0 0
SMALL
GASTEIGER

@<TRIPOS>ATOM
      1 N         138.5617  138.5582  162.5368 N.3     1  UNL1       -0.2725
      2 C         138.1005  139.9015  163.0194 C.3     1  UNL1        0.0725
      3 C         138.2036  140.2517  164.4743 C.3     1  UNL1        0.0234
      4 C         138.7679  139.2585  165.4466 C.3     1  UNL1        0.0464
      5 C         139.2290  137.9153  164.9640 C.3     1  UNL1        0.0234
      6 C         139.1259  137.5651  163.5091 C.3     1  UNL1        0.0725
      7 C         138.8710  139.6087  166.9015 C.ar    1  UNL1        0.1003
      8 N         138.1122  138.9592  168.0206 N.ar    1  UNL1       -0.0814
      9 O         138.5233  139.6190  169.3035 O.2     1  UNL1       -0.3536
     10 C         139.5361  140.6763  168.9772 C.ar    1  UNL1        0.1787
     11 C         140.2904  141.6440  169.8401 C.ar    1  UNL1        0.0698
     12 C         141.2595  142.6053  169.2184 C.ar    1  UNL1        0.1433
     13 F         142.0139  143.5730  170.0813 F       1  UNL1       -0.2041
     14 C         141.4744  142.5989  167.7339 C.ar    1  UNL1        0.0299
     15 C         140.7202  141.6312  166.8710 C.ar    1  UNL1        0.0067
     16 C         139.7510  140.6699  167.4927 C.ar    1  UNL1        0.0540
     17 C         138.4586  138.2080  161.0818 C.3     1  UNL1        0.0759
     18 C         139.6768  138.2649  160.2086 C.3     1  UNL1        0.0646
     19 C         140.0642  139.5531  159.5448 C.3     1  UNL1        0.2068
     20 O         141.1720  140.3876  160.1160 O.3     1  UNL1       -0.4754
     21 C         140.2925  143.3780  163.3615 C.ar    1  UNL1        0.0505
     22 C         139.5958  143.4818  162.0372 C.ar    1  UNL1        0.0178
     23 C         139.8890  142.4850  160.9554 C.ar    1  UNL1        0.0382
     24 C         140.8789  141.3844  161.1979 C.ar    1  UNL1        0.1386
     25 C         141.5756  141.2806  162.5221 C.ar    1  UNL1        0.0382
     26 C         141.2824  142.2774  163.6040 C.ar    1  UNL1        0.0178
     27 C         138.3647  145.3774  166.1962 C.3     1  UNL1        0.0949
     28 C         138.6579  144.3806  165.1143 C.2     1  UNL1        0.2266
     29 O         137.6094  143.3896  164.7034 O.2     1  UNL1       -0.2748
     30 N         139.9994  144.3748  164.4434 N.am    1  UNL1       -0.2839
     31 H         140.6875  145.0252  164.7131 H       1  UNL1        0.1549
@<TRIPOS>BOND
     1    27    28    1
     2    28    29    2
     3    28    30   am
     4    30    21    1
     5    21    22   ar
     6    22    23   ar
     7    23    24   ar
     8    24    20    1
     9    20    19    1
    10    19    18    1
    11    18    17    1
    12    17     1    1
    13     1     2    1
    14     2     3    1
    15     3     4    1
    16     4     7    1
    17     7     8   ar
    18     8     9   ar
    19     9    10   ar
    20    10    11   ar
    21    11    12   ar
    22    12    13    1
    23    12    14   ar
    24    14    15   ar
    25    15    16   ar
    26     4     5    1
    27     5     6    1
    28    24    25   ar
    29    25    26   ar
    30    26    21   ar
    31     6     1    1
    32    16     7   ar
    33    16    10   ar
    34    30    31    1
@<TRIPOS>MOLECULE
*****
 31 34 0 0 0
SMALL
GASTEIGER

@<TRIPOS>ATOM
      1 N         140.4441  142.8283  159.2192 N.3     1  UNL1       -0.2725
      2 C         141.7949  142.2401  159.5007 C.3     1  UNL1        0.0725
      3 C         141.9198  141.0421  160.3947 C.3     1  UNL1        0.0234
      4 C         140.6938  140.4322  161.0072 C.3     1  UNL1        0.0464
      5 C         139.3430  141.0204  160.7257 C.3     1  UNL1        0.0234
      6 C         139.2182  142.2185  159.8317 C.3     1  UNL1        0.0725
      7 C         140.8187  139.2342  161.9011 C.ar    1  UNL1        0.1003
      8 N         140.1827  137.8947  161.6743 N.ar    1  UNL1       -0.0814
      9 O         140.5725  136.9981  162.8119 O.2     1  UNL1       -0.3536
     10 C         141.4493  137.7833  163.7417 C.ar    1  UNL1        0.1787
     11 C         142.1289  137.4184  165.0282 C.ar    1  UNL1        0.0698
     12 C         142.9606  138.4356  165.7517 C.ar    1  UNL1        0.1433
     13 F         143.6401  138.0707  167.0383 F       1  UNL1       -0.2041
     14 C         143.1127  139.8176  165.1889 C.ar    1  UNL1        0.0299
     15 C         142.4332  140.1825  163.9024 C.ar    1  UNL1        0.0067
     16 C         141.6015  139.1653  163.1788 C.ar    1  UNL1        0.0540
     17 C         140.3192  144.0263  158.3253 C.3     1  UNL1        0.0759
     18 C         140.1623  145.3938  158.9214 C.3     1  UNL1        0.0646
     19 C         140.4905  145.6240  160.3669 C.3     1  UNL1        0.2068
     20 O         139.3910  145.6802  161.3857 O.3     1  UNL1       -0.4754
     21 C         139.0394  142.4482  164.4971 C.ar    1  UNL1        0.0505
     22 C         137.8071  143.1315  163.9830 C.ar    1  UNL1        0.0178
     23 C         137.9243  144.2089  162.9459 C.ar    1  UNL1        0.0382
     24 C         139.2738  144.6028  162.4229 C.ar    1  UNL1        0.1386
     25 C         140.5062  143.9196  162.9370 C.ar    1  UNL1        0.0382
     26 C         140.3890  142.8422  163.9741 C.ar    1  UNL1        0.0178
     27 C         138.2960  138.9356  166.1879 C.3     1  UNL1        0.0949
     28 C         138.4132  140.0130  165.1508 C.2     1  UNL1        0.2266
     29 O         138.0211  139.7325  163.7304 O.2     1  UNL1       -0.2748
     30 N         138.9223  141.3709  165.5342 N.am    1  UNL1       -0.2839
     31 H         139.1796  141.5550  166.4665 H       1  UNL1        0.1549
@<TRIPOS>BOND
     1    27    28    1
     2    28    29    2
     3    28    30   am
     4    30    21    1
     5    21    22   ar
     6    22    23   ar
     7    23    24   ar
     8    24    20    1
     9    20    19    1
    10    19    18    1
    11    18    17    1
    12    17     1    1
    13     1     2    1
    14     2     3    1
    15     3     4    1
    16     4     7    1
    17     7     8   ar
    18     8     9   ar
    19     9    10   ar
    20    10    11   ar
    21    11    12   ar
    22    12    13    1
    23    12    14   ar
    24    14    15   ar
    25    15    16   ar
    26     4     5    1
    27     5     6    1
    28    24    25   ar
    29    25    26   ar
    30    26    21   ar
    31     6     1    1
    32    16     7   ar
    33    16    10   ar
    34    30    31    1
@<TRIPOS>MOLECULE
*****
 31 34 0 0 0
SMALL
GASTEIGER

@<TRIPOS>ATOM
      1 N         142.8860  138.0897  162.2785 N.3     1  UNL1       -0.2725
      2 C         143.9895  138.9142  162.8723 C.3     1  UNL1        0.0725
      3 C         143.9321  139.3155  164.3165 C.3     1  UNL1        0.0234
      4 C         142.7712  138.8922  165.1670 C.3     1  UNL1        0.0464
      5 C         141.6678  138.0677  164.5732 C.3     1  UNL1        0.0234
      6 C         141.7252  137.6665  163.1290 C.3     1  UNL1        0.0725
      7 C         142.7138  139.2935  166.6112 C.ar    1  UNL1        0.1003
      8 N         143.3424  138.5567  167.7566 N.ar    1  UNL1       -0.0814
      9 O         143.0348  139.3099  169.0168 O.2     1  UNL1       -0.3536
     10 C         142.2162  140.5122  168.6502 C.ar    1  UNL1        0.1787
     11 C         141.6258  141.6148  169.4781 C.ar    1  UNL1        0.0698
     12 C         140.8370  142.7073  168.8193 C.ar    1  UNL1        0.1433
     13 F         140.2465  143.8101  169.6472 F       1  UNL1       -0.2041
     14 C         140.6386  142.6972  167.3325 C.ar    1  UNL1        0.0299
     15 C         141.2290  141.5945  166.5046 C.ar    1  UNL1        0.0067
     16 C         142.0178  140.5020  167.1634 C.ar    1  UNL1        0.0540
     17 C         142.9434  137.6884  160.8343 C.3     1  UNL1        0.0759
     18 C         142.9926  138.7394  159.7653 C.3     1  UNL1        0.0646
     19 C         141.8495  139.6969  159.6017 C.3     1  UNL1        0.2068
     20 O         142.1080  141.1739  159.5639 O.3     1  UNL1       -0.4754
     21 C         140.4798  143.8270  162.8134 C.ar    1  UNL1        0.0505
     22 C         141.6009  142.8765  163.1127 C.ar    1  UNL1        0.0178
     23 C         142.1436  141.9921  162.0295 C.ar    1  UNL1        0.0382
     24 C         141.5652  142.0583  160.6471 C.ar    1  UNL1        0.1386
     25 C         140.4442  143.0088  160.3478 C.ar    1  UNL1        0.0382
     26 C         139.9014  143.8932  161.4310 C.ar    1  UNL1        0.0178
     27 C         138.2622  145.1187  165.8406 C.3     1  UNL1        0.0949
     28 C         138.8051  144.2344  164.7574 C.2     1  UNL1        0.2266
     29 O         138.2159  142.8729  164.5352 O.2     1  UNL1       -0.2748
     30 N         139.9370  144.7115  163.8966 N.am    1  UNL1       -0.2839
     31 H         140.3237  145.6050  164.0424 H       1  UNL1        0.1549
@<TRIPOS>BOND
     1    27    28    1
     2    28    29    2
     3    28    30   am
     4    30    21    1
     5    21    22   ar
     6    22    23   ar
     7    23    24   ar
     8    24    20    1
     9    20    19    1
    10    19    18    1
    11    18    17    1
    12    17     1    1
    13     1     2    1
    14     2     3    1
    15     3     4    1
    16     4     7    1
    17     7     8   ar
    18     8     9   ar
    19     9    10   ar
    20    10    11   ar
    21    11    12   ar
    22    12    13    1
    23    12    14   ar
    24    14    15   ar
    25    15    16   ar
    26     4     5    1
    27     5     6    1
    28    24    25   ar
    29    25    26   ar
    30    26    21   ar
    31     6     1    1
    32    16     7   ar
    33    16    10   ar
    34    30    31    1
@<TRIPOS>MOLECULE
*****
 31 34 0 0 0
SMALL
GASTEIGER

@<TRIPOS>ATOM
      1 N         142.4782  141.9641  161.2240 N.3     1  UNL1       -0.2725
      2 C         143.5260  142.2561  162.2568 C.3     1  UNL1        0.0725
      3 C         143.1623  142.2673  163.7120 C.3     1  UNL1        0.0234
      4 C         141.7506  141.9863  164.1344 C.3     1  UNL1        0.0464
      5 C         140.7028  141.6943  163.1016 C.3     1  UNL1        0.0234
      6 C         141.0666  141.6831  161.6464 C.3     1  UNL1        0.0725
      7 C         141.3868  141.9975  165.5896 C.ar    1  UNL1        0.1003
      8 N         140.5217  143.0137  166.2743 N.ar    1  UNL1       -0.0814
      9 O         140.4245  142.6386  167.7234 O.2     1  UNL1       -0.3536
     10 C         141.2296  141.3906  167.9342 C.ar    1  UNL1        0.1787
     11 C         141.4979  140.5638  169.1567 C.ar    1  UNL1        0.0698
     12 C         142.3610  139.3409  169.0603 C.ar    1  UNL1        0.1433
     13 F         142.6294  138.5140  170.2828 F       1  UNL1       -0.2041
     14 C         142.9558  138.9446  167.7415 C.ar    1  UNL1        0.0299
     15 C         142.6874  139.7714  166.5190 C.ar    1  UNL1        0.0067
     16 C         141.8243  140.9944  166.6154 C.ar    1  UNL1        0.0540
     17 C         142.8420  141.9529  159.7688 C.3     1  UNL1        0.0759
     18 C         143.0162  140.6484  159.0493 C.3     1  UNL1        0.0646
     19 C         143.1856  139.3784  159.8294 C.3     1  UNL1        0.2068
     20 O         142.0624  138.3869  159.9012 O.3     1  UNL1       -0.4754
     21 C         139.8380  137.7832  163.7661 C.ar    1  UNL1        0.0505
     22 C         139.0796  137.9639  162.4847 C.ar    1  UNL1        0.0178
     23 C         139.8211  138.1651  161.1964 C.ar    1  UNL1        0.0382
     24 C         141.3209  138.1856  161.1896 C.ar    1  UNL1        0.1386
     25 C         142.0793  138.0049  162.4710 C.ar    1  UNL1        0.0382
     26 C         141.3378  137.8037  163.7593 C.ar    1  UNL1        0.0178
     27 C         137.6898  138.5450  167.0149 C.3     1  UNL1        0.0949
     28 C         138.4312  138.7462  165.7266 C.2     1  UNL1        0.2266
     29 O         138.5072  140.1117  165.1104 O.2     1  UNL1       -0.2748
     30 N         139.0966  137.5819  165.0545 N.am    1  UNL1       -0.2839
     31 H         139.0467  136.6857  165.4589 H       1  UNL1        0.1549
@<TRIPOS>BOND
     1    27    28    1
     2    28    29    2
     3    28    30   am
     4    30    21    1
     5    21    22   ar
     6    22    23   ar
     7    23    24   ar
     8    24    20    1
     9    20    19    1
    10    19    18    1
    11    18    17    1
    12    17     1    1
    13     1     2    1
    14     2     3    1
    15     3     4    1
    16     4     7    1
    17     7     8   ar
    18     8     9   ar
    19     9    10   ar
    20    10    11   ar
    21    11    12   ar
    22    12    13    1
    23    12    14   ar
    24    14    15   ar
    25    15    16   ar
    26     4     5    1
    27     5     6    1
    28    24    25   ar
    29    25    26   ar
    30    26    21   ar
    31     6     1    1
    32    16     7   ar
    33    16    10   ar
    34    30    31    1
@<TRIPOS>MOLECULE
*****
 31 34 0 0 0
SMALL
GASTEIGER

@<TRIPOS>ATOM
      1 N         138.3286  140.9842  161.3309 N.3     1  UNL1       -0.2725
      2 C         138.9357  139.6767  161.7456 C.3     1  UNL1        0.0725
      3 C         139.0063  139.3099  163.1984 C.3     1  UNL1        0.0234
      4 C         138.4699  140.2507  164.2364 C.3     1  UNL1        0.0464
      5 C         137.8629  141.5580  163.8216 C.3     1  UNL1        0.0234
      6 C         137.7922  141.9248  162.3689 C.3     1  UNL1        0.0725
      7 C         138.5406  139.8839  165.6892 C.ar    1  UNL1        0.1003
      8 N         137.6562  138.8983  166.3937 N.ar    1  UNL1       -0.0814
      9 O         138.0771  138.8436  167.8324 O.2     1  UNL1       -0.3536
     10 C         139.2217  139.7953  168.0170 C.ar    1  UNL1        0.1787
     11 C         140.0402  140.1596  169.2201 C.ar    1  UNL1        0.0698
     12 C         141.1450  141.1668  169.0986 C.ar    1  UNL1        0.1433
     13 F         141.9635  141.5310  170.3017 F       1  UNL1       -0.2041
     14 C         141.4315  141.8097  167.7740 C.ar    1  UNL1        0.0299
     15 C         140.6131  141.4454  166.5709 C.ar    1  UNL1        0.0067
     16 C         139.5082  140.4383  166.6924 C.ar    1  UNL1        0.0540
     17 C         138.2579  141.3510  159.8781 C.3     1  UNL1        0.0759
     18 C         138.7840  142.6764  159.4127 C.3     1  UNL1        0.0646
     19 C         140.1666  143.1119  159.7988 C.3     1  UNL1        0.2068
     20 O         141.3121  142.1489  159.6966 O.3     1  UNL1       -0.4754
     21 C         143.1356  140.4174  163.4284 C.ar    1  UNL1        0.0505
     22 C         143.4248  139.7958  162.0944 C.ar    1  UNL1        0.0178
     23 C         142.8170  140.3729  160.8504 C.ar    1  UNL1        0.0382
     24 C         141.9199  141.5717  160.9406 C.ar    1  UNL1        0.1386
     25 C         141.6307  142.1934  162.2746 C.ar    1  UNL1        0.0382
     26 C         142.2385  141.6162  163.5186 C.ar    1  UNL1        0.0178
     27 C         143.7063  138.0887  166.5909 C.3     1  UNL1        0.0949
     28 C         143.0986  138.6658  165.3469 C.2     1  UNL1        0.2266
     29 O         141.8461  138.0684  164.7773 O.2     1  UNL1       -0.2748
     30 N         143.7434  139.8403  164.6724 N.am    1  UNL1       -0.2839
     31 H         144.5654  140.2324  165.0463 H       1  UNL1        0.1549
@<TRIPOS>BOND
     1    27    28    1
     2    28    29    2
     3    28    30   am
     4    30    21    1
     5    21    22   ar
     6    22    23   ar
     7    23    24   ar
     8    24    20    1
     9    20    19    1
    10    19    18    1
    11    18    17    1
    12    17     1    1
    13     1     2    1
    14     2     3    1
    15     3     4    1
    16     4     7    1
    17     7     8   ar
    18     8     9   ar
    19     9    10   ar
    20    10    11   ar
    21    11    12   ar
    22    12    13    1
    23    12    14   ar
    24    14    15   ar
    25    15    16   ar
    26     4     5    1
    27     5     6    1
    28    24    25   ar
    29    25    26   ar
    30    26    21   ar
    31     6     1    1
    32    16     7   ar
    33    16    10   ar
    34    30    31    1
