@<TRIPOS>MOLECULE
*****
 39 44 0 0 0
SMALL
GASTEIGER

@<TRIPOS>ATOM
      1 C         138.6817  139.8162  165.0374 C.ar    1  UNL1       -0.0065
      2 C         138.3461  141.2769  164.9765 C.ar    1  UNL1       -0.0032
      3 C         138.2261  141.9641  163.6487 C.ar    1  UNL1       -0.0026
      4 C         138.4416  141.1906  162.3816 C.ar    1  UNL1        0.0019
      5 C         138.7772  139.7299  162.4425 C.ar    1  UNL1       -0.0200
      6 C         138.8972  139.0427  163.7704 C.ar    1  UNL1       -0.0071
      7 C         138.9333  139.2312  161.0365 C.3     1  UNL1        0.0519
      8 C         138.6942  140.3837  160.1066 C.2     1  UNL1        0.0074
      9 C         138.6430  140.7878  158.6630 C.2     1  UNL1        0.0976
     10 N         138.3074  142.2485  158.6021 N.2     1  UNL1       -0.1526
     11 N         138.1513  142.7472  160.0081 N.2     1  UNL1       -0.1678
     12 C         138.3904  141.5947  160.9380 C.3     1  UNL1        0.1672
     13 C         138.8848  139.8889  157.4867 C.ar    1  UNL1        0.0265
     14 C         138.3888  140.1132  156.0889 C.ar    1  UNL1        0.0376
     15 S         138.8625  138.9709  155.2401 S.2     1  UNL1       -0.0780
     16 C         139.6513  138.0405  156.1132 C.ar    1  UNL1        0.0711
     17 C         139.6651  138.6079  157.5017 C.ar    1  UNL1        0.0168
     18 C         140.3106  136.7665  155.6748 C.1     1  UNL1       -0.0543
     19 C         140.9699  135.4924  155.2365 C.1     1  UNL1       -0.0388
     20 C         141.6291  134.2184  154.7981 C.3     1  UNL1        0.2814
     21 O         141.4851  132.9760  155.6261 O.3     1  UNL1       -0.4612
     22 C         142.6601  132.4454  156.3930 C.ar    1  UNL1        0.1400
     23 C         143.5820  133.3923  157.1025 C.ar    1  UNL1        0.0369
     24 C         144.7569  132.8618  157.8694 C.ar    1  UNL1        0.0031
     25 C         145.0098  131.3845  157.9268 C.ar    1  UNL1        0.0002
     26 C         144.0878  130.4376  157.2174 C.ar    1  UNL1        0.0031
     27 C         142.9130  130.9680  156.4504 C.ar    1  UNL1        0.0369
     28 C         138.8017  139.1289  166.3653 C.3     1  UNL1        0.0992
     29 N         142.7956  142.4556  170.8632 N.am    1  UNL1       -0.3132
     30 C         141.3866  141.9555  170.9836 C.2     1  UNL1        0.3009
     31 O         140.6237  142.1620  172.2585 O.2     1  UNL1       -0.2528
     32 N         140.7403  141.2488  169.8290 N.am    1  UNL1       -0.2616
     33 C         141.5032  141.0423  168.5541 C.3     1  UNL1        0.1123
     34 C         140.8570  140.3356  167.3995 C.3     1  UNL1        0.0942
     35 N         139.4479  139.8355  167.5198 N.3     1  UNL1       -0.2660
     36 C         138.6851  140.0421  168.7948 C.3     1  UNL1        0.0942
     37 C         139.3313  140.7487  169.9494 C.3     1  UNL1        0.1123
     38 H         143.2197  142.9194  171.6210 H       1  UNL1        0.1465
     39 H         143.2963  142.3200  170.0265 H       1  UNL1        0.1465
@<TRIPOS>BOND
     1    29    30   am
     2    30    31    2
     3    30    32   am
     4    32    33    1
     5    33    34    1
     6    34    35    1
     7    35    28    1
     8    28     1    1
     9     1     2   ar
    10     2     3   ar
    11     3     4   ar
    12     4     5   ar
    13     5     6   ar
    14     5     7    1
    15     7     8    1
    16     8     9    2
    17     9    13    1
    18    13    14   ar
    19    14    15   ar
    20    15    16   ar
    21    16    18    1
    22    18    19    3
    23    19    20    1
    24    20    21    1
    25    21    22    1
    26    22    23   ar
    27    23    24   ar
    28    24    25   ar
    29    25    26   ar
    30    26    27   ar
    31    16    17   ar
    32     9    10    1
    33    10    11    2
    34    11    12    1
    35    35    36    1
    36    36    37    1
    37    37    32    1
    38     6     1   ar
    39    12     8    1
    40    12     4    1
    41    17    13   ar
    42    27    22   ar
    43    29    38    1
    44    29    39    1
@<TRIPOS>MOLECULE
*****
 39 44 0 0 0
SMALL
GASTEIGER

@<TRIPOS>ATOM
      1 C         142.5602  136.3789  155.8666 C.ar    1  UNL1       -0.0065
      2 C         141.6437  136.7950  154.7546 C.ar    1  UNL1       -0.0032
      3 C         140.4964  137.7198  155.0348 C.ar    1  UNL1       -0.0026
      4 C         140.2656  138.2283  156.4269 C.ar    1  UNL1        0.0019
      5 C         141.1822  137.8122  157.5390 C.ar    1  UNL1       -0.0200
      6 C         142.3295  136.8875  157.2588 C.ar    1  UNL1       -0.0071
      7 C         140.7088  138.4706  158.8008 C.3     1  UNL1        0.0519
      8 C         139.4995  139.2937  158.4687 C.2     1  UNL1        0.0074
      9 C         138.4596  140.2093  159.0433 C.2     1  UNL1        0.0976
     10 N         137.5431  140.6255  157.9313 N.2     1  UNL1       -0.1526
     11 N         138.0165  139.9671  156.6694 N.2     1  UNL1       -0.1678
     12 C         139.2256  139.1440  157.0015 C.3     1  UNL1        0.1672
     13 C         138.3547  140.6342  160.4781 C.ar    1  UNL1        0.0265
     14 C         138.2517  142.0460  160.9742 C.ar    1  UNL1        0.0376
     15 S         138.1678  142.0062  162.4713 S.2     1  UNL1       -0.0780
     16 C         138.2189  140.5698  162.9004 C.ar    1  UNL1        0.0711
     17 C         138.3344  139.7218  161.6685 C.ar    1  UNL1        0.0168
     18 C         138.1641  140.0692  164.3133 C.1     1  UNL1       -0.0543
     19 C         138.1092  139.5685  165.7263 C.1     1  UNL1       -0.0388
     20 C         138.0544  139.0679  167.1392 C.3     1  UNL1        0.2814
     21 O         139.2472  139.2207  168.0358 O.3     1  UNL1       -0.4612
     22 C         139.6392  140.5789  168.5377 C.ar    1  UNL1        0.1400
     23 C         140.3894  141.5210  167.6435 C.ar    1  UNL1        0.0369
     24 C         140.7814  142.8791  168.1452 C.ar    1  UNL1        0.0031
     25 C         140.4231  143.2951  169.5411 C.ar    1  UNL1        0.0002
     26 C         139.6729  142.3530  170.4353 C.ar    1  UNL1        0.0031
     27 C         139.2809  140.9948  169.9335 C.ar    1  UNL1        0.0369
     28 C         143.7076  135.4541  155.5865 C.3     1  UNL1        0.0992
     29 N         144.2062  129.2311  158.4632 N.am    1  UNL1       -0.3132
     30 C         143.4116  129.7067  157.2832 C.2     1  UNL1        0.3009
     31 O         142.5430  128.7453  156.5273 O.2     1  UNL1       -0.2528
     32 N         143.4856  131.1435  156.8590 N.am    1  UNL1       -0.2616
     33 C         144.3542  132.1048  157.6149 C.3     1  UNL1        0.1123
     34 C         144.4282  133.5417  157.1908 C.3     1  UNL1        0.0942
     35 N         143.6336  134.0173  156.0107 N.3     1  UNL1       -0.2660
     36 C         142.7650  133.0559  155.2548 C.3     1  UNL1        0.0942
     37 C         142.6910  131.6190  155.6790 C.3     1  UNL1        0.1123
     38 H         144.1576  128.2881  158.7416 H       1  UNL1        0.1465
     39 H         144.7762  129.8621  158.9594 H       1  UNL1        0.1465
@<TRIPOS>BOND
     1    29    30   am
     2    30    31    2
     3    30    32   am
     4    32    33    1
     5    33    34    1
     6    34    35    1
     7    35    28    1
     8    28     1    1
     9     1     2   ar
    10     2     3   ar
    11     3     4   ar
    12     4     5   ar
    13     5     6   ar
    14     5     7    1
    15     7     8    1
    16     8     9    2
    17     9    13    1
    18    13    14   ar
    19    14    15   ar
    20    15    16   ar
    21    16    18    1
    22    18    19    3
    23    19    20    1
    24    20    21    1
    25    21    22    1
    26    22    23   ar
    27    23    24   ar
    28    24    25   ar
    29    25    26   ar
    30    26    27   ar
    31    16    17   ar
    32     9    10    1
    33    10    11    2
    34    11    12    1
    35    35    36    1
    36    36    37    1
    37    37    32    1
    38     6     1   ar
    39    12     8    1
    40    12     4    1
    41    17    13   ar
    42    27    22   ar
    43    29    38    1
    44    29    39    1
@<TRIPOS>MOLECULE
*****
 39 44 0 0 0
SMALL
GASTEIGER

@<TRIPOS>ATOM
      1 C         142.2132  142.5554  164.3852 C.ar    1  UNL1       -0.0065
      2 C         141.2331  143.5236  164.9784 C.ar    1  UNL1       -0.0032
      3 C         140.5462  144.5276  164.1009 C.ar    1  UNL1       -0.0026
      4 C         140.8393  144.5633  162.6302 C.ar    1  UNL1        0.0019
      5 C         141.8194  143.5950  162.0371 C.ar    1  UNL1       -0.0200
      6 C         142.5063  142.5911  162.9146 C.ar    1  UNL1       -0.0071
      7 C         141.9060  143.8667  160.5644 C.3     1  UNL1        0.0519
      8 C         140.9794  145.0030  160.2474 C.2     1  UNL1        0.0074
      9 C         140.4603  145.8731  159.1413 C.2     1  UNL1        0.0976
     10 N         139.4803  146.8414  159.7345 N.2     1  UNL1       -0.1526
     11 N         139.3937  146.5697  161.2071 N.2     1  UNL1       -0.1678
     12 C         140.3202  145.4335  161.5241 C.3     1  UNL1        0.1672
     13 C         140.8524  145.7896  157.6959 C.ar    1  UNL1        0.0265
     14 C         140.0545  146.3045  156.5347 C.ar    1  UNL1        0.0376
     15 S         140.8203  146.0096  155.2791 S.2     1  UNL1       -0.0780
     16 C         142.0914  145.3125  155.6642 C.ar    1  UNL1        0.0711
     17 C         142.1113  145.1765  157.1579 C.ar    1  UNL1        0.0168
     18 C         143.1558  144.8351  154.7212 C.1     1  UNL1       -0.0543
     19 C         144.2202  144.3578  153.7782 C.1     1  UNL1       -0.0388
     20 C         145.2845  143.8804  152.8352 C.3     1  UNL1        0.2814
     21 O         146.7053  144.3241  153.0212 O.3     1  UNL1       -0.4612
     22 C         147.6662  143.4620  153.7852 C.ar    1  UNL1        0.1400
     23 C         147.2709  142.8964  155.1170 C.ar    1  UNL1        0.0369
     24 C         148.2317  142.0344  155.8809 C.ar    1  UNL1        0.0031
     25 C         149.5880  141.7380  155.3130 C.ar    1  UNL1        0.0002
     26 C         149.9834  142.3035  153.9811 C.ar    1  UNL1        0.0031
     27 C         149.0225  143.1656  153.2172 C.ar    1  UNL1        0.0369
     28 C         142.9002  141.5513  165.2628 C.3     1  UNL1        0.0992
     29 N         139.8950  139.6220  171.1361 N.am    1  UNL1       -0.3132
     30 C         140.9619  140.6417  170.8677 C.2     1  UNL1        0.3009
     31 O         141.5442  141.4339  172.0005 O.2     1  UNL1       -0.2528
     32 N         141.4465  140.8691  169.4665 N.am    1  UNL1       -0.2616
     33 C         140.8641  140.0768  168.3337 C.3     1  UNL1        0.1123
     34 C         141.3487  140.3042  166.9324 C.3     1  UNL1        0.0942
     35 N         142.4156  141.3239  166.6640 N.3     1  UNL1       -0.2660
     36 C         142.9979  142.1161  167.7968 C.3     1  UNL1        0.0942
     37 C         142.5134  141.8887  169.1980 C.3     1  UNL1        0.1123
     38 H         139.5769  139.4728  172.0558 H       1  UNL1        0.1465
     39 H         139.5128  139.1020  170.3926 H       1  UNL1        0.1465
@<TRIPOS>BOND
     1    29    30   am
     2    30    31    2
     3    30    32   am
     4    32    33    1
     5    33    34    1
     6    34    35    1
     7    35    28    1
     8    28     1    1
     9     1     2   ar
    10     2     3   ar
    11     3     4   ar
    12     4     5   ar
    13     5     6   ar
    14     5     7    1
    15     7     8    1
    16     8     9    2
    17     9    13    1
    18    13    14   ar
    19    14    15   ar
    20    15    16   ar
    21    16    18    1
    22    18    19    3
    23    19    20    1
    24    20    21    1
    25    21    22    1
    26    22    23   ar
    27    23    24   ar
    28    24    25   ar
    29    25    26   ar
    30    26    27   ar
    31    16    17   ar
    32     9    10    1
    33    10    11    2
    34    11    12    1
    35    35    36    1
    36    36    37    1
    37    37    32    1
    38     6     1   ar
    39    12     8    1
    40    12     4    1
    41    17    13   ar
    42    27    22   ar
    43    29    38    1
    44    29    39    1
@<TRIPOS>MOLECULE
*****
 39 44 0 0 0
SMALL
GASTEIGER

@<TRIPOS>ATOM
      1 C         142.2832  137.5704  156.2806 C.ar    1  UNL1       -0.0065
      2 C         143.3698  138.4109  155.6784 C.ar    1  UNL1       -0.0032
      3 C         143.9036  139.5958  156.4274 C.ar    1  UNL1       -0.0026
      4 C         143.3508  139.9402  157.7786 C.ar    1  UNL1        0.0019
      5 C         142.2642  139.0997  158.3808 C.ar    1  UNL1       -0.0200
      6 C         141.7304  137.9148  157.6318 C.ar    1  UNL1       -0.0071
      7 C         141.9180  139.6797  159.7201 C.3     1  UNL1        0.0519
      8 C         142.7907  140.8787  159.9456 C.2     1  UNL1        0.0074
      9 C         143.1160  141.9781  160.9127 C.2     1  UNL1        0.0976
     10 N         144.2026  142.8187  160.3105 N.2     1  UNL1       -0.1526
     11 N         144.5488  142.2386  158.9712 N.2     1  UNL1       -0.1678
     12 C         143.6762  141.0397  158.7457 C.3     1  UNL1        0.1672
     13 C         142.4684  142.1984  162.2477 C.ar    1  UNL1        0.0265
     14 C         142.3477  143.5113  162.9632 C.ar    1  UNL1        0.0376
     15 S         141.6325  143.2687  164.2592 S.2     1  UNL1       -0.0780
     16 C         141.3113  141.8060  164.3447 C.ar    1  UNL1        0.0711
     17 C         141.8279  141.1445  163.1015 C.ar    1  UNL1        0.0168
     18 C         140.5986  141.1244  165.4750 C.1     1  UNL1       -0.0543
     19 C         139.8859  140.4428  166.6053 C.1     1  UNL1       -0.0388
     20 C         139.1732  139.7613  167.7355 C.3     1  UNL1        0.2814
     21 O         139.7707  139.7673  169.1113 O.3     1  UNL1       -0.4612
     22 C         140.8143  140.7830  169.4713 C.ar    1  UNL1        0.1400
     23 C         142.2451  140.3629  169.6337 C.ar    1  UNL1        0.0369
     24 C         143.2886  141.3784  169.9937 C.ar    1  UNL1        0.0031
     25 C         142.9014  142.8140  170.1912 C.ar    1  UNL1        0.0002
     26 C         141.4706  143.2341  170.0287 C.ar    1  UNL1        0.0031
     27 C         140.4271  142.2186  169.6688 C.ar    1  UNL1        0.0369
     28 C         141.7493  136.3854  155.5316 C.3     1  UNL1        0.0992
     29 N         144.3880  130.6368  158.2224 N.am    1  UNL1       -0.3132
     30 C         143.3383  130.8364  157.1697 C.2     1  UNL1        0.3009
     31 O         142.6858  129.6487  156.5265 O.2     1  UNL1       -0.2528
     32 N         142.9410  132.2236  156.7602 N.am    1  UNL1       -0.2616
     33 C         143.5935  133.4112  157.4034 C.3     1  UNL1        0.1123
     34 C         143.1963  134.7986  156.9939 C.3     1  UNL1        0.0942
     35 N         142.1465  134.9982  155.9412 N.3     1  UNL1       -0.2660
     36 C         141.4940  133.8104  155.2980 C.3     1  UNL1        0.0942
     37 C         141.8913  132.4232  155.7075 C.3     1  UNL1        0.1123
     38 H         144.6488  129.7263  158.4912 H       1  UNL1        0.1465
     39 H         144.8163  131.4163  158.6446 H       1  UNL1        0.1465
@<TRIPOS>BOND
     1    29    30   am
     2    30    31    2
     3    30    32   am
     4    32    33    1
     5    33    34    1
     6    34    35    1
     7    35    28    1
     8    28     1    1
     9     1     2   ar
    10     2     3   ar
    11     3     4   ar
    12     4     5   ar
    13     5     6   ar
    14     5     7    1
    15     7     8    1
    16     8     9    2
    17     9    13    1
    18    13    14   ar
    19    14    15   ar
    20    15    16   ar
    21    16    18    1
    22    18    19    3
    23    19    20    1
    24    20    21    1
    25    21    22    1
    26    22    23   ar
    27    23    24   ar
    28    24    25   ar
    29    25    26   ar
    30    26    27   ar
    31    16    17   ar
    32     9    10    1
    33    10    11    2
    34    11    12    1
    35    35    36    1
    36    36    37    1
    37    37    32    1
    38     6     1   ar
    39    12     8    1
    40    12     4    1
    41    17    13   ar
    42    27    22   ar
    43    29    38    1
    44    29    39    1
@<TRIPOS>MOLECULE
*****
 39 44 0 0 0
SMALL
GASTEIGER

@<TRIPOS>ATOM
      1 C         138.8586  139.2617  165.0042 C.ar    1  UNL1       -0.0065
      2 C         137.8898  140.3079  164.5386 C.ar    1  UNL1       -0.0032
      3 C         137.7327  140.5854  163.0729 C.ar    1  UNL1       -0.0026
      4 C         138.5444  139.8167  162.0728 C.ar    1  UNL1        0.0019
      5 C         139.5132  138.7705  162.5384 C.ar    1  UNL1       -0.0200
      6 C         139.6703  138.4930  164.0041 C.ar    1  UNL1       -0.0071
      7 C         140.1720  138.1775  161.3283 C.3     1  UNL1        0.0519
      8 C         139.6104  138.8572  160.1148 C.2     1  UNL1        0.0074
      9 C         139.6704  138.9107  158.6170 C.2     1  UNL1        0.0976
     10 N         138.7016  139.9569  158.1514 N.2     1  UNL1       -0.1526
     11 N         138.0428  140.5499  159.3615 N.2     1  UNL1       -0.1678
     12 C         138.6044  139.8703  160.5749 C.3     1  UNL1        0.1672
     13 C         140.5457  138.0663  157.7389 C.ar    1  UNL1        0.0265
     14 C         142.0445  138.0176  157.7736 C.ar    1  UNL1        0.0376
     15 S         142.5009  137.0435  156.7282 S.2     1  UNL1       -0.0780
     16 C         141.2841  136.4903  156.0474 C.ar    1  UNL1        0.0711
     17 C         140.0757  137.1224  156.6721 C.ar    1  UNL1        0.0168
     18 C         141.2769  135.4820  154.9369 C.1     1  UNL1       -0.0543
     19 C         141.2698  134.4736  153.8264 C.1     1  UNL1       -0.0388
     20 C         141.2627  133.4653  152.7159 C.3     1  UNL1        0.2814
     21 O         141.4866  132.0135  153.0196 O.3     1  UNL1       -0.4612
     22 C         142.3606  131.6144  154.1715 C.ar    1  UNL1        0.1400
     23 C         143.7096  131.0107  153.9154 C.ar    1  UNL1        0.0369
     24 C         144.5836  130.6116  155.0673 C.ar    1  UNL1        0.0031
     25 C         144.1085  130.8161  156.4752 C.ar    1  UNL1        0.0002
     26 C         142.7594  131.4197  156.7313 C.ar    1  UNL1        0.0031
     27 C         141.8854  131.8189  155.5795 C.ar    1  UNL1        0.0369
     28 C         139.0157  138.9842  166.4699 C.3     1  UNL1        0.0992
     29 N         142.4677  142.5825  171.2013 N.am    1  UNL1       -0.3132
     30 C         142.7828  142.2953  169.7632 C.2     1  UNL1        0.3009
     31 O         144.0397  142.8359  169.1484 O.2     1  UNL1       -0.2528
     32 N         141.8410  141.4675  168.9399 N.am    1  UNL1       -0.2616
     33 C         140.5842  140.9270  169.5547 C.3     1  UNL1        0.1123
     34 C         139.6423  140.0992  168.7314 C.3     1  UNL1        0.0942
     35 N         139.9575  139.8120  167.2933 N.3     1  UNL1       -0.2660
     36 C         141.2144  140.3526  166.6784 C.3     1  UNL1        0.0942
     37 C         142.1562  141.1803  167.5017 C.3     1  UNL1        0.1123
     38 H         143.0858  143.1258  171.7417 H       1  UNL1        0.1465
     39 H         141.6427  142.2277  171.6048 H       1  UNL1        0.1465
@<TRIPOS>BOND
     1    29    30   am
     2    30    31    2
     3    30    32   am
     4    32    33    1
     5    33    34    1
     6    34    35    1
     7    35    28    1
     8    28     1    1
     9     1     2   ar
    10     2     3   ar
    11     3     4   ar
    12     4     5   ar
    13     5     6   ar
    14     5     7    1
    15     7     8    1
    16     8     9    2
    17     9    13    1
    18    13    14   ar
    19    14    15   ar
    20    15    16   ar
    21    16    18    1
    22    18    19    3
    23    19    20    1
    24    20    21    1
    25    21    22    1
    26    22    23   ar
    27    23    24   ar
    28    24    25   ar
    29    25    26   ar
    30    26    27   ar
    31    16    17   ar
    32     9    10    1
    33    10    11    2
    34    11    12    1
    35    35    36    1
    36    36    37    1
    37    37    32    1
    38     6     1   ar
    39    12     8    1
    40    12     4    1
    41    17    13   ar
    42    27    22   ar
    43    29    38    1
    44    29    39    1
@<TRIPOS>MOLECULE
*****
 39 44 0 0 0
SMALL
GASTEIGER

@<TRIPOS>ATOM
      1 C         142.3526  136.9204  155.6651 C.ar    1  UNL1       -0.0065
      2 C         143.4068  137.4638  154.7468 C.ar    1  UNL1       -0.0032
      3 C         144.1725  138.6954  155.1297 C.ar    1  UNL1       -0.0026
      4 C         143.8840  139.3837  156.4308 C.ar    1  UNL1        0.0019
      5 C         142.8297  138.8404  157.3491 C.ar    1  UNL1       -0.0200
      6 C         142.0640  137.6087  156.9662 C.ar    1  UNL1       -0.0071
      7 C         142.7659  139.7268  158.5575 C.3     1  UNL1        0.0519
      8 C         143.7808  140.8179  158.3861 C.2     1  UNL1        0.0074
      9 C         144.3686  142.0401  159.0270 C.2     1  UNL1        0.0976
     10 N         145.4229  142.5834  158.1088 N.2     1  UNL1       -0.1526
     11 N         145.4867  141.6971  156.9004 N.2     1  UNL1       -0.1678
     12 C         144.4718  140.6060  157.0717 C.3     1  UNL1        0.1672
     13 C         143.9718  142.6175  160.3533 C.ar    1  UNL1        0.0265
     14 C         144.9052  142.9960  161.4650 C.ar    1  UNL1        0.0376
     15 S         144.0821  143.5303  162.5995 S.2     1  UNL1       -0.0780
     16 C         142.6402  143.4819  162.1891 C.ar    1  UNL1        0.0711
     17 C         142.5720  142.9179  160.8009 C.ar    1  UNL1        0.0168
     18 C         141.4716  143.9207  163.0209 C.1     1  UNL1       -0.0543
     19 C         140.3029  144.3595  163.8526 C.1     1  UNL1       -0.0388
     20 C         139.1343  144.7982  164.6844 C.3     1  UNL1        0.2814
     21 O         137.9349  143.9079  164.8215 O.3     1  UNL1       -0.4612
     22 C         137.9570  142.5251  164.2405 C.ar    1  UNL1        0.1400
     23 C         138.3963  141.3645  165.0831 C.ar    1  UNL1        0.0369
     24 C         138.4184  139.9818  164.5022 C.ar    1  UNL1        0.0031
     25 C         138.0012  139.7596  163.0786 C.ar    1  UNL1        0.0002
     26 C         137.5619  140.9202  162.2360 C.ar    1  UNL1        0.0031
     27 C         137.5398  142.3030  162.8169 C.ar    1  UNL1        0.0369
     28 C         141.5868  135.6887  155.2822 C.3     1  UNL1        0.0992
     29 N         144.3764  130.2208  158.3757 N.am    1  UNL1       -0.3132
     30 C         143.3531  130.3150  157.2830 C.2     1  UNL1        0.3009
     31 O         142.7714  129.0657  156.6905 O.2     1  UNL1       -0.2528
     32 N         142.9115  131.6584  156.7828 N.am    1  UNL1       -0.2616
     33 C         143.4932  132.9076  157.3753 C.3     1  UNL1        0.1123
     34 C         143.0517  134.2511  156.8751 C.3     1  UNL1        0.0942
     35 N         142.0284  134.3453  155.7824 N.3     1  UNL1       -0.2660
     36 C         141.4466  133.0960  155.1899 C.3     1  UNL1        0.0942
     37 C         141.8882  131.7526  155.6901 C.3     1  UNL1        0.1123
     38 H         144.6662  129.3391  158.7040 H       1  UNL1        0.1465
     39 H         144.7582  131.0407  158.7646 H       1  UNL1        0.1465
@<TRIPOS>BOND
     1    29    30   am
     2    30    31    2
     3    30    32   am
     4    32    33    1
     5    33    34    1
     6    34    35    1
     7    35    28    1
     8    28     1    1
     9     1     2   ar
    10     2     3   ar
    11     3     4   ar
    12     4     5   ar
    13     5     6   ar
    14     5     7    1
    15     7     8    1
    16     8     9    2
    17     9    13    1
    18    13    14   ar
    19    14    15   ar
    20    15    16   ar
    21    16    18    1
    22    18    19    3
    23    19    20    1
    24    20    21    1
    25    21    22    1
    26    22    23   ar
    27    23    24   ar
    28    24    25   ar
    29    25    26   ar
    30    26    27   ar
    31    16    17   ar
    32     9    10    1
    33    10    11    2
    34    11    12    1
    35    35    36    1
    36    36    37    1
    37    37    32    1
    38     6     1   ar
    39    12     8    1
    40    12     4    1
    41    17    13   ar
    42    27    22   ar
    43    29    38    1
    44    29    39    1
@<TRIPOS>MOLECULE
*****
 39 44 0 0 0
SMALL
GASTEIGER

@<TRIPOS>ATOM
      1 C         139.2208  139.7234  166.1533 C.ar    1  UNL1       -0.0065
      2 C         138.7520  138.4967  165.4285 C.ar    1  UNL1       -0.0032
      3 C         138.6255  138.5111  163.9339 C.ar    1  UNL1       -0.0026
      4 C         138.9678  139.7522  163.1642 C.ar    1  UNL1        0.0019
      5 C         139.4367  140.9788  163.8890 C.ar    1  UNL1       -0.0200
      6 C         139.5632  140.9645  165.3835 C.ar    1  UNL1       -0.0071
      7 C         139.7000  142.0472  162.8696 C.3     1  UNL1        0.0519
      8 C         139.3939  141.4808  161.5147 C.2     1  UNL1        0.0074
      9 C         139.3676  141.7911  160.0474 C.2     1  UNL1        0.0976
     10 N         138.8987  140.5644  159.3227 N.2     1  UNL1       -0.1526
     11 N         138.6353  139.4961  160.3420 N.2     1  UNL1       -0.1678
     12 C         138.9414  140.0624  161.6968 C.3     1  UNL1        0.1672
     13 C         139.7440  143.0986  159.4158 C.ar    1  UNL1        0.0265
     14 C         140.0727  144.3677  160.1449 C.ar    1  UNL1        0.0376
     15 S         140.3896  145.4199  159.1239 S.2     1  UNL1       -0.0780
     16 C         140.2567  144.8012  157.7639 C.ar    1  UNL1        0.0711
     17 C         139.8577  143.3665  157.9443 C.ar    1  UNL1        0.0168
     18 C         140.4831  145.4952  156.4536 C.1     1  UNL1       -0.0543
     19 C         140.7096  146.1892  155.1431 C.1     1  UNL1       -0.0388
     20 C         140.9359  146.8832  153.8328 C.3     1  UNL1        0.2814
     21 O         139.9865  147.9507  153.3756 O.3     1  UNL1       -0.4612
     22 C         139.6788  149.1143  154.2708 C.ar    1  UNL1        0.1400
     23 C         138.7020  148.9557  155.3980 C.ar    1  UNL1        0.0369
     24 C         138.3943  150.1192  156.2932 C.ar    1  UNL1        0.0031
     25 C         139.0635  151.4415  156.0611 C.ar    1  UNL1        0.0002
     26 C         140.0403  151.6002  154.9339 C.ar    1  UNL1        0.0031
     27 C         140.3480  150.4366  154.0387 C.ar    1  UNL1        0.0369
     28 C         139.3474  139.7091  167.6479 C.3     1  UNL1        0.0992
     29 N         143.1589  144.0950  171.3201 N.am    1  UNL1       -0.3132
     30 C         143.5559  143.0364  170.3344 C.2     1  UNL1        0.3009
     31 O         145.0050  142.8096  170.0202 O.2     1  UNL1       -0.2528
     32 N         142.5038  142.2045  169.6628 N.am    1  UNL1       -0.2616
     33 C         141.0547  142.4314  169.9769 C.3     1  UNL1        0.1123
     34 C         140.0025  141.5995  169.3053 C.3     1  UNL1        0.0942
     35 N         140.3995  140.5409  168.3195 N.3     1  UNL1       -0.2660
     36 C         141.8486  140.3141  168.0054 C.3     1  UNL1        0.0942
     37 C         142.9007  141.1459  168.6770 C.3     1  UNL1        0.1123
     38 H         143.8495  144.6410  171.7609 H       1  UNL1        0.1465
     39 H         142.2078  144.2439  171.5263 H       1  UNL1        0.1465
@<TRIPOS>BOND
     1    29    30   am
     2    30    31    2
     3    30    32   am
     4    32    33    1
     5    33    34    1
     6    34    35    1
     7    35    28    1
     8    28     1    1
     9     1     2   ar
    10     2     3   ar
    11     3     4   ar
    12     4     5   ar
    13     5     6   ar
    14     5     7    1
    15     7     8    1
    16     8     9    2
    17     9    13    1
    18    13    14   ar
    19    14    15   ar
    20    15    16   ar
    21    16    18    1
    22    18    19    3
    23    19    20    1
    24    20    21    1
    25    21    22    1
    26    22    23   ar
    27    23    24   ar
    28    24    25   ar
    29    25    26   ar
    30    26    27   ar
    31    16    17   ar
    32     9    10    1
    33    10    11    2
    34    11    12    1
    35    35    36    1
    36    36    37    1
    37    37    32    1
    38     6     1   ar
    39    12     8    1
    40    12     4    1
    41    17    13   ar
    42    27    22   ar
    43    29    38    1
    44    29    39    1
@<TRIPOS>MOLECULE
*****
 39 44 0 0 0
SMALL
GASTEIGER

@<TRIPOS>ATOM
      1 C         142.2279  137.0735  156.8990 C.ar    1  UNL1       -0.0065
      2 C         140.8979  137.3686  156.2712 C.ar    1  UNL1       -0.0032
      3 C         139.8350  138.0722  157.0619 C.ar    1  UNL1       -0.0026
      4 C         140.1021  138.4807  158.4803 C.ar    1  UNL1        0.0019
      5 C         141.4320  138.1856  159.1080 C.ar    1  UNL1       -0.0200
      6 C         142.4949  137.4820  158.3174 C.ar    1  UNL1       -0.0071
      7 C         141.4060  138.7051  160.5149 C.3     1  UNL1        0.0519
      8 C         140.0599  139.3212  160.7567 C.2     1  UNL1        0.0074
      9 C         139.2119  140.0231  161.7757 C.2     1  UNL1        0.0976
     10 N         137.8819  140.3181  161.1480 N.2     1  UNL1       -0.1526
     11 N         137.9080  139.7987  159.7411 N.2     1  UNL1       -0.1678
     12 C         139.2540  139.1826  159.4993 C.3     1  UNL1        0.1672
     13 C         139.6219  140.3691  163.1765 C.ar    1  UNL1        0.0265
     14 C         140.7927  141.2214  163.5674 C.ar    1  UNL1        0.0376
     15 S         140.8275  141.3026  165.0648 S.2     1  UNL1       -0.0780
     16 C         139.6782  140.5004  165.5993 C.ar    1  UNL1        0.0711
     17 C         138.9331  139.9235  164.4323 C.ar    1  UNL1        0.0168
     18 C         139.3344  140.3088  167.0467 C.1     1  UNL1       -0.0543
     19 C         138.9906  140.1171  168.4942 C.1     1  UNL1       -0.0388
     20 C         138.6467  139.9255  169.9416 C.3     1  UNL1        0.2814
     21 O         139.6099  140.3620  171.0055 O.3     1  UNL1       -0.4612
     22 C         140.8912  141.0424  170.6238 C.ar    1  UNL1        0.1400
     23 C         142.1342  140.2320  170.4042 C.ar    1  UNL1        0.0369
     24 C         143.4153  140.9123  170.0225 C.ar    1  UNL1        0.0031
     25 C         143.4535  142.4030  169.8605 C.ar    1  UNL1        0.0002
     26 C         142.2105  143.2134  170.0801 C.ar    1  UNL1        0.0031
     27 C         140.9293  142.5331  170.4617 C.ar    1  UNL1        0.0369
     28 C         143.2908  136.3699  156.1083 C.3     1  UNL1        0.0992
     29 N         143.8244  129.6108  157.2392 N.am    1  UNL1       -0.3132
     30 C         143.4723  130.3737  155.9966 C.2     1  UNL1        0.3009
     31 O         143.1655  129.6376  154.7261 O.2     1  UNL1       -0.2528
     32 N         143.4269  131.8728  156.0245 N.am    1  UNL1       -0.2616
     33 C         143.7337  132.6088  157.2950 C.3     1  UNL1        0.1123
     34 C         143.6883  134.1079  157.3229 C.3     1  UNL1        0.0942
     35 N         143.3362  134.8709  156.0804 N.3     1  UNL1       -0.2660
     36 C         143.0294  134.1348  154.8099 C.3     1  UNL1        0.0942
     37 C         143.0748  132.6357  154.7820 C.3     1  UNL1        0.1123
     38 H         143.8542  128.6269  157.2208 H       1  UNL1        0.1465
     39 H         144.0258  130.0939  158.0730 H       1  UNL1        0.1465
@<TRIPOS>BOND
     1    29    30   am
     2    30    31    2
     3    30    32   am
     4    32    33    1
     5    33    34    1
     6    34    35    1
     7    35    28    1
     8    28     1    1
     9     1     2   ar
    10     2     3   ar
    11     3     4   ar
    12     4     5   ar
    13     5     6   ar
    14     5     7    1
    15     7     8    1
    16     8     9    2
    17     9    13    1
    18    13    14   ar
    19    14    15   ar
    20    15    16   ar
    21    16    18    1
    22    18    19    3
    23    19    20    1
    24    20    21    1
    25    21    22    1
    26    22    23   ar
    27    23    24   ar
    28    24    25   ar
    29    25    26   ar
    30    26    27   ar
    31    16    17   ar
    32     9    10    1
    33    10    11    2
    34    11    12    1
    35    35    36    1
    36    36    37    1
    37    37    32    1
    38     6     1   ar
    39    12     8    1
    40    12     4    1
    41    17    13   ar
    42    27    22   ar
    43    29    38    1
    44    29    39    1
@<TRIPOS>MOLECULE
*****
 39 44 0 0 0
SMALL
GASTEIGER

@<TRIPOS>ATOM
      1 C         142.8202  139.3233  166.1815 C.ar    1  UNL1       -0.0065
      2 C         144.0522  138.8030  165.5023 C.ar    1  UNL1       -0.0032
      3 C         144.1631  138.8551  164.0073 C.ar    1  UNL1       -0.0026
      4 C         143.0420  139.4274  163.1915 C.ar    1  UNL1        0.0019
      5 C         141.8100  139.9477  163.8707 C.ar    1  UNL1       -0.0200
      6 C         141.6991  139.8957  165.3657 C.ar    1  UNL1       -0.0071
      7 C         140.8746  140.4513  162.8118 C.3     1  UNL1        0.0519
      8 C         141.5285  140.2423  161.4781 C.2     1  UNL1        0.0074
      9 C         141.3545  140.4243  159.9994 C.2     1  UNL1        0.0976
     10 N         142.5865  139.9040  159.3202 N.2     1  UNL1       -0.1526
     11 N         143.5219  139.4004  160.3792 N.2     1  UNL1       -0.1678
     12 C         142.8681  139.6094  161.7128 C.3     1  UNL1        0.1672
     13 C         140.1585  141.0218  159.3193 C.ar    1  UNL1        0.0265
     14 C         139.7037  142.4472  159.4266 C.ar    1  UNL1        0.0376
     15 S         138.4714  142.6051  158.5861 S.2     1  UNL1       -0.0780
     16 C         138.1645  141.2773  157.9593 C.ar    1  UNL1        0.0711
     17 C         139.2072  140.2988  158.4124 C.ar    1  UNL1        0.0168
     18 C         137.0166  140.9802  157.0407 C.1     1  UNL1       -0.0543
     19 C         135.8686  140.6831  156.1221 C.1     1  UNL1       -0.0388
     20 C         134.7206  140.3860  155.2035 C.3     1  UNL1        0.2814
     21 O         133.4424  141.1614  155.3254 O.3     1  UNL1       -0.4612
     22 C         132.2781  140.5760  156.0683 C.ar    1  UNL1        0.1400
     23 C         130.8809  141.0054  155.7313 C.ar    1  UNL1        0.0369
     24 C         129.7167  140.4201  156.4742 C.ar    1  UNL1        0.0031
     25 C         129.9496  139.4055  157.5541 C.ar    1  UNL1        0.0002
     26 C         131.3467  138.9762  157.8912 C.ar    1  UNL1        0.0031
     27 C         132.5110  139.5614  157.1483 C.ar    1  UNL1        0.0369
     28 C         142.7092  139.2713  167.6765 C.3     1  UNL1        0.0992
     29 N         138.7124  143.3240  171.5301 N.am    1  UNL1       -0.3132
     30 C         139.8648  143.6528  170.6279 C.2     1  UNL1        0.3009
     31 O         140.3060  145.0771  170.4636 O.2     1  UNL1       -0.2528
     32 N         140.5759  142.5575  169.8900 N.am    1  UNL1       -0.2616
     33 C         140.1346  141.1333  170.0544 C.3     1  UNL1        0.1123
     34 C         140.8457  140.0379  169.3165 C.3     1  UNL1        0.0942
     35 N         141.9981  140.3667  168.4143 N.3     1  UNL1       -0.2660
     36 C         142.4394  141.7909  168.2500 C.3     1  UNL1        0.0942
     37 C         141.7283  142.8863  168.9879 C.3     1  UNL1        0.1123
     38 H         138.2456  144.0430  172.0143 H       1  UNL1        0.1465
     39 H         138.4228  142.3893  171.6379 H       1  UNL1        0.1465
@<TRIPOS>BOND
     1    29    30   am
     2    30    31    2
     3    30    32   am
     4    32    33    1
     5    33    34    1
     6    34    35    1
     7    35    28    1
     8    28     1    1
     9     1     2   ar
    10     2     3   ar
    11     3     4   ar
    12     4     5   ar
    13     5     6   ar
    14     5     7    1
    15     7     8    1
    16     8     9    2
    17     9    13    1
    18    13    14   ar
    19    14    15   ar
    20    15    16   ar
    21    16    18    1
    22    18    19    3
    23    19    20    1
    24    20    21    1
    25    21    22    1
    26    22    23   ar
    27    23    24   ar
    28    24    25   ar
    29    25    26   ar
    30    26    27   ar
    31    16    17   ar
    32     9    10    1
    33    10    11    2
    34    11    12    1
    35    35    36    1
    36    36    37    1
    37    37    32    1
    38     6     1   ar
    39    12     8    1
    40    12     4    1
    41    17    13   ar
    42    27    22   ar
    43    29    38    1
    44    29    39    1
