@<TRIPOS>MOLECULE
*****
 19 20 0 0 0
SMALL
GASTEIGER

@<TRIPOS>ATOM
      1 O         139.7433  140.7900  167.1795 O.2     1  UNL1       -0.1642
      2 S         140.2410  142.0413  166.5189 S.O2    1  UNL1        0.0295
      3 O         140.7387  143.2927  165.8583 O.2     1  UNL1       -0.1642
      4 C         141.0273  142.3790  167.7508 C.ar    1  UNL1        0.1208
      5 C         140.4054  143.2112  168.8328 C.ar    1  UNL1        0.0196
      6 C         141.1917  143.5489  170.0648 C.ar    1  UNL1        0.0014
      7 C         142.5999  143.0543  170.2148 C.ar    1  UNL1        0.0009
      8 C         143.2217  142.2220  169.1328 C.ar    1  UNL1        0.0127
      9 C         142.4354  141.8844  167.9008 C.ar    1  UNL1        0.0751
     10 CL        143.0573  141.0521  166.8189 Cl      1  UNL1       -0.0809
     11 C         139.4546  141.7037  165.2869 C.2     1  UNL1        0.1293
     12 C         139.8398  140.5180  164.4528 C.2     1  UNL1        0.0400
     13 C         139.0535  140.1804  163.2208 C.ar    1  UNL1        0.0932
     14 N         138.7287  141.2509  162.2216 N.ar    1  UNL1       -0.2429
     15 C         137.9425  140.9132  160.9896 C.ar    1  UNL1        0.0989
     16 C         137.4809  139.5051  160.7570 C.ar    1  UNL1        0.0215
     17 C         137.8057  138.4346  161.7562 C.ar    1  UNL1        0.0145
     18 C         138.5920  138.7723  162.9881 C.ar    1  UNL1        0.0753
     19 CL        138.9167  137.7018  163.9875 Cl      1  UNL1       -0.0807
@<TRIPOS>BOND
     1     1     2    2
     2     2     3    2
     3     2    11    1
     4    11    12    2
     5    12    13    1
     6    13    14   ar
     7    14    15   ar
     8    15    16   ar
     9    16    17   ar
    10    17    18   ar
    11    18    19    1
    12     2     4    1
    13     4     5   ar
    14     5     6   ar
    15     6     7   ar
    16     7     8   ar
    17     8     9   ar
    18     9    10    1
    19    18    13   ar
    20     9     4   ar
@<TRIPOS>MOLECULE
*****
 19 20 0 0 0
SMALL
GASTEIGER

@<TRIPOS>ATOM
      1 O         141.6092  139.7439  167.0679 O.2     1  UNL1       -0.1642
      2 S         140.8852  141.0498  166.9248 S.O2    1  UNL1        0.0295
      3 O         140.1612  142.3556  166.7817 O.2     1  UNL1       -0.1642
      4 C         141.3230  141.4437  168.3043 C.ar    1  UNL1        0.1208
      5 C         142.6094  142.1904  168.4982 C.ar    1  UNL1        0.0196
      6 C         143.0473  142.5844  169.8778 C.ar    1  UNL1        0.0014
      7 C         142.1987  142.2317  171.0633 C.ar    1  UNL1        0.0009
      8 C         140.9123  141.4849  170.8693 C.ar    1  UNL1        0.0127
      9 C         140.4745  141.0910  169.4898 C.ar    1  UNL1        0.0751
     10 CL        139.1881  140.3443  169.2959 Cl      1  UNL1       -0.0809
     11 C         140.4474  140.6558  165.5452 C.2     1  UNL1        0.1293
     12 C         138.9973  140.3943  165.2646 C.2     1  UNL1        0.0400
     13 C         138.5594  140.0003  163.8851 C.ar    1  UNL1        0.0932
     14 N         138.0719  141.0454  162.9259 N.ar    1  UNL1       -0.2429
     15 C         137.6340  140.6515  161.5464 C.ar    1  UNL1        0.0989
     16 C         137.6837  139.2124  161.1261 C.ar    1  UNL1        0.0215
     17 C         138.1713  138.1673  162.0852 C.ar    1  UNL1        0.0145
     18 C         138.6091  138.5613  163.4647 C.ar    1  UNL1        0.0753
     19 CL        139.0966  137.5162  164.4240 Cl      1  UNL1       -0.0807
@<TRIPOS>BOND
     1     1     2    2
     2     2     3    2
     3     2    11    1
     4    11    12    2
     5    12    13    1
     6    13    14   ar
     7    14    15   ar
     8    15    16   ar
     9    16    17   ar
    10    17    18   ar
    11    18    19    1
    12     2     4    1
    13     4     5   ar
    14     5     6   ar
    15     6     7   ar
    16     7     8   ar
    17     8     9   ar
    18     9    10    1
    19    18    13   ar
    20     9     4   ar
@<TRIPOS>MOLECULE
*****
 19 20 0 0 0
SMALL
GASTEIGER

@<TRIPOS>ATOM
      1 O         140.2710  142.5043  166.8481 O.2     1  UNL1       -0.1642
      2 S         140.8565  141.1338  167.0171 S.O2    1  UNL1        0.0295
      3 O         141.4421  139.7632  167.1861 O.2     1  UNL1       -0.1642
      4 C         141.3180  141.5009  168.3963 C.ar    1  UNL1        0.1208
      5 C         142.6281  142.2062  168.5858 C.ar    1  UNL1        0.0196
      6 C         143.0896  142.5734  169.9651 C.ar    1  UNL1        0.0014
      7 C         142.2409  142.2353  171.1548 C.ar    1  UNL1        0.0009
      8 C         140.9306  141.5300  170.9652 C.ar    1  UNL1        0.0127
      9 C         140.4692  141.1628  169.5860 C.ar    1  UNL1        0.0751
     10 CL        139.1590  140.4575  169.3964 Cl      1  UNL1       -0.0809
     11 C         140.3951  140.7665  165.6379 C.2     1  UNL1        0.1293
     12 C         139.0279  140.1840  165.4347 C.2     1  UNL1        0.0400
     13 C         138.5665  139.8167  164.0554 C.ar    1  UNL1        0.0932
     14 N         138.7734  138.4228  163.5417 N.ar    1  UNL1       -0.2429
     15 C         138.3120  138.0556  162.1625 C.ar    1  UNL1        0.0989
     16 C         137.6436  139.0824  161.2970 C.ar    1  UNL1        0.0215
     17 C         137.4367  140.4764  161.8108 C.ar    1  UNL1        0.0145
     18 C         137.8981  140.8435  163.1900 C.ar    1  UNL1        0.0753
     19 CL        137.6912  142.2376  163.7038 Cl      1  UNL1       -0.0807
@<TRIPOS>BOND
     1     1     2    2
     2     2     3    2
     3     2    11    1
     4    11    12    2
     5    12    13    1
     6    13    14   ar
     7    14    15   ar
     8    15    16   ar
     9    16    17   ar
    10    17    18   ar
    11    18    19    1
    12     2     4    1
    13     4     5   ar
    14     5     6   ar
    15     6     7   ar
    16     7     8   ar
    17     8     9   ar
    18     9    10    1
    19    18    13   ar
    20     9     4   ar
@<TRIPOS>MOLECULE
*****
 19 20 0 0 0
SMALL
GASTEIGER

@<TRIPOS>ATOM
      1 O         142.0418  141.6616  166.1527 O.2     1  UNL1       -0.1642
      2 S         140.8496  141.0072  166.7855 S.O2    1  UNL1        0.0295
      3 O         139.6575  140.3529  167.4184 O.2     1  UNL1       -0.1642
      4 C         141.2975  141.4935  168.1320 C.ar    1  UNL1        0.1208
      5 C         140.8308  142.8247  168.6419 C.ar    1  UNL1        0.0196
      6 C         141.2786  143.3111  169.9884 C.ar    1  UNL1        0.0014
      7 C         142.1932  142.4661  170.8249 C.ar    1  UNL1        0.0009
      8 C         142.6598  141.1349  170.3149 C.ar    1  UNL1        0.0127
      9 C         142.2120  140.6486  168.9685 C.ar    1  UNL1        0.0751
     10 CL        142.6786  139.3174  168.4586 Cl      1  UNL1       -0.0809
     11 C         140.4017  140.5209  165.4390 C.2     1  UNL1        0.1293
     12 C         138.9394  140.4664  165.1097 C.2     1  UNL1        0.0400
     13 C         138.4914  139.9800  163.7632 C.ar    1  UNL1        0.0932
     14 N         138.6386  138.5317  163.4018 N.ar    1  UNL1       -0.2429
     15 C         138.1907  138.0454  162.0554 C.ar    1  UNL1        0.0989
     16 C         137.5956  139.0075  161.0704 C.ar    1  UNL1        0.0215
     17 C         137.4485  140.4558  161.4317 C.ar    1  UNL1        0.0145
     18 C         137.8964  140.9421  162.7781 C.ar    1  UNL1        0.0753
     19 CL        137.7493  142.3905  163.1395 Cl      1  UNL1       -0.0807
@<TRIPOS>BOND
     1     1     2    2
     2     2     3    2
     3     2    11    1
     4    11    12    2
     5    12    13    1
     6    13    14   ar
     7    14    15   ar
     8    15    16   ar
     9    16    17   ar
    10    17    18   ar
    11    18    19    1
    12     2     4    1
    13     4     5   ar
    14     5     6   ar
    15     6     7   ar
    16     7     8   ar
    17     8     9   ar
    18     9    10    1
    19    18    13   ar
    20     9     4   ar
@<TRIPOS>MOLECULE
*****
 19 20 0 0 0
SMALL
GASTEIGER

@<TRIPOS>ATOM
      1 O         140.4022  143.0085  166.9141 O.2     1  UNL1       -0.1642
      2 S         141.4257  142.1285  166.2597 S.O2    1  UNL1        0.0295
      3 O         142.4491  141.2486  165.6054 O.2     1  UNL1       -0.1642
      4 C         141.8228  141.5917  167.6029 C.ar    1  UNL1        0.1208
      5 C         142.9547  142.2230  168.3580 C.ar    1  UNL1        0.0196
      6 C         143.3519  141.6862  169.7012 C.ar    1  UNL1        0.0014
      7 C         142.6171  140.5181  170.2892 C.ar    1  UNL1        0.0009
      8 C         141.4852  139.8868  169.5340 C.ar    1  UNL1        0.0127
      9 C         141.0880  140.4236  168.1909 C.ar    1  UNL1        0.0751
     10 CL        139.9562  139.7924  167.4357 Cl      1  UNL1       -0.0809
     11 C         141.0285  142.6654  164.9165 C.2     1  UNL1        0.1293
     12 C         141.6423  143.9347  164.4048 C.2     1  UNL1        0.0400
     13 C         141.2452  144.4716  163.0616 C.ar    1  UNL1        0.0932
     14 N         140.1583  145.4999  162.9563 N.ar    1  UNL1       -0.2429
     15 C         139.7613  146.0367  161.6132 C.ar    1  UNL1        0.0989
     16 C         140.4511  145.5451  160.3752 C.ar    1  UNL1        0.0215
     17 C         141.5380  144.5168  160.4805 C.ar    1  UNL1        0.0145
     18 C         141.9351  143.9800  161.8236 C.ar    1  UNL1        0.0753
     19 CL        143.0220  142.9516  161.9289 Cl      1  UNL1       -0.0807
@<TRIPOS>BOND
     1     1     2    2
     2     2     3    2
     3     2    11    1
     4    11    12    2
     5    12    13    1
     6    13    14   ar
     7    14    15   ar
     8    15    16   ar
     9    16    17   ar
    10    17    18   ar
    11    18    19    1
    12     2     4    1
    13     4     5   ar
    14     5     6   ar
    15     6     7   ar
    16     7     8   ar
    17     8     9   ar
    18     9    10    1
    19    18    13   ar
    20     9     4   ar
@<TRIPOS>MOLECULE
*****
 19 20 0 0 0
SMALL
GASTEIGER

@<TRIPOS>ATOM
      1 O         142.6768  142.2484  166.5841 O.2     1  UNL1       -0.1642
      2 S         141.3057  141.6593  166.7351 S.O2    1  UNL1        0.0295
      3 O         139.9345  141.0702  166.8861 O.2     1  UNL1       -0.1642
      4 C         141.7045  141.0695  168.0553 C.ar    1  UNL1        0.1208
      5 C         142.2872  139.6886  168.1145 C.ar    1  UNL1        0.0196
      6 C         142.6861  139.0988  169.4348 C.ar    1  UNL1        0.0014
      7 C         142.5021  139.8899  170.6958 C.ar    1  UNL1        0.0009
      8 C         141.9193  141.2708  170.6367 C.ar    1  UNL1        0.0127
      9 C         141.5205  141.8606  169.3164 C.ar    1  UNL1        0.0751
     10 CL        140.9378  143.2415  169.2573 Cl      1  UNL1       -0.0809
     11 C         140.9068  142.2491  165.4148 C.2     1  UNL1        0.1293
     12 C         141.4604  143.5764  164.9884 C.2     1  UNL1        0.0400
     13 C         141.0615  144.1662  163.6681 C.ar    1  UNL1        0.0932
     14 N         141.9793  144.0510  162.4873 N.ar    1  UNL1       -0.2429
     15 C         141.5804  144.6408  161.1671 C.ar    1  UNL1        0.0989
     16 C         140.2637  145.3457  161.0277 C.ar    1  UNL1        0.0215
     17 C         139.3459  145.4608  162.2085 C.ar    1  UNL1        0.0145
     18 C         139.7448  144.8711  163.5287 C.ar    1  UNL1        0.0753
     19 CL        138.8270  144.9862  164.7096 Cl      1  UNL1       -0.0807
@<TRIPOS>BOND
     1     1     2    2
     2     2     3    2
     3     2    11    1
     4    11    12    2
     5    12    13    1
     6    13    14   ar
     7    14    15   ar
     8    15    16   ar
     9    16    17   ar
    10    17    18   ar
    11    18    19    1
    12     2     4    1
    13     4     5   ar
    14     5     6   ar
    15     6     7   ar
    16     7     8   ar
    17     8     9   ar
    18     9    10    1
    19    18    13   ar
    20     9     4   ar
@<TRIPOS>MOLECULE
*****
 19 20 0 0 0
SMALL
GASTEIGER

@<TRIPOS>ATOM
      1 O         140.6816  140.3242  164.2576 O.2     1  UNL1       -0.1642
      2 S         139.5891  139.3722  164.6448 S.O2    1  UNL1        0.0295
      3 O         138.4965  138.4202  165.0320 O.2     1  UNL1       -0.1642
      4 C         139.1201  139.3311  163.2206 C.ar    1  UNL1        0.1208
      5 C         139.6478  138.2823  162.2872 C.ar    1  UNL1        0.0196
      6 C         139.1788  138.2412  160.8629 C.ar    1  UNL1        0.0014
      7 C         138.1821  139.2490  160.3722 C.ar    1  UNL1        0.0009
      8 C         137.6544  140.2979  161.3057 C.ar    1  UNL1        0.0127
      9 C         138.1234  140.3390  162.7299 C.ar    1  UNL1        0.0751
     10 CL        137.5956  141.3878  163.6633 Cl      1  UNL1       -0.0809
     11 C         140.0580  139.4132  166.0691 C.2     1  UNL1        0.1293
     12 C         139.9713  140.6904  166.8508 C.2     1  UNL1        0.0400
     13 C         140.4403  140.7314  168.2750 C.ar    1  UNL1        0.0932
     14 N         139.6582  140.0257  169.3428 N.ar    1  UNL1       -0.2429
     15 C         140.1272  140.0667  170.7669 C.ar    1  UNL1        0.0989
     16 C         141.3783  140.8135  171.1234 C.ar    1  UNL1        0.0215
     17 C         142.1604  141.5192  170.0556 C.ar    1  UNL1        0.0145
     18 C         141.6914  141.4782  168.6314 C.ar    1  UNL1        0.0753
     19 CL        142.4735  142.1840  167.5636 Cl      1  UNL1       -0.0807
@<TRIPOS>BOND
     1     1     2    2
     2     2     3    2
     3     2    11    1
     4    11    12    2
     5    12    13    1
     6    13    14   ar
     7    14    15   ar
     8    15    16   ar
     9    16    17   ar
    10    17    18   ar
    11    18    19    1
    12     2     4    1
    13     4     5   ar
    14     5     6   ar
    15     6     7   ar
    16     7     8   ar
    17     8     9   ar
    18     9    10    1
    19    18    13   ar
    20     9     4   ar
@<TRIPOS>MOLECULE
*****
 19 20 0 0 0
SMALL
GASTEIGER

@<TRIPOS>ATOM
      1 O         141.1792  141.5020  166.7167 O.2     1  UNL1       -0.1642
      2 S         140.2321  140.4947  167.2982 S.O2    1  UNL1        0.0295
      3 O         139.2850  139.4873  167.8797 O.2     1  UNL1       -0.1642
      4 C         140.7218  140.8295  168.6759 C.ar    1  UNL1        0.1208
      5 C         139.9910  141.8429  169.5059 C.ar    1  UNL1        0.0196
      6 C         140.4807  142.1778  170.8836 C.ar    1  UNL1        0.0014
      7 C         141.7012  141.4993  171.4313 C.ar    1  UNL1        0.0009
      8 C         142.4320  140.4859  170.6013 C.ar    1  UNL1        0.0127
      9 C         141.9423  140.1510  169.2236 C.ar    1  UNL1        0.0751
     10 CL        142.6731  139.1376  168.3936 Cl      1  UNL1       -0.0809
     11 C         139.7423  140.1597  165.9205 C.2     1  UNL1        0.1293
     12 C         140.4635  139.1344  165.0968 C.2     1  UNL1        0.0400
     13 C         139.9738  138.7995  163.7191 C.ar    1  UNL1        0.0932
     14 N         138.5054  138.8376  163.4152 N.ar    1  UNL1       -0.2429
     15 C         138.0157  138.5027  162.0376 C.ar    1  UNL1        0.0989
     16 C         138.9944  138.1297  160.9638 C.ar    1  UNL1        0.0215
     17 C         140.4628  138.0917  161.2676 C.ar    1  UNL1        0.0145
     18 C         140.9525  138.4266  162.6453 C.ar    1  UNL1        0.0753
     19 CL        142.4209  138.3885  162.9492 Cl      1  UNL1       -0.0807
@<TRIPOS>BOND
     1     1     2    2
     2     2     3    2
     3     2    11    1
     4    11    12    2
     5    12    13    1
     6    13    14   ar
     7    14    15   ar
     8    15    16   ar
     9    16    17   ar
    10    17    18   ar
    11    18    19    1
    12     2     4    1
    13     4     5   ar
    14     5     6   ar
    15     6     7   ar
    16     7     8   ar
    17     8     9   ar
    18     9    10    1
    19    18    13   ar
    20     9     4   ar
@<TRIPOS>MOLECULE
*****
 19 20 0 0 0
SMALL
GASTEIGER

@<TRIPOS>ATOM
      1 O         142.4083  139.3960  167.0729 O.2     1  UNL1       -0.1642
      2 S         141.8158  140.7290  166.7240 S.O2    1  UNL1        0.0295
      3 O         141.2233  142.0621  166.3750 O.2     1  UNL1       -0.1642
      4 C         141.6850  141.0527  168.1827 C.ar    1  UNL1        0.1208
      5 C         142.7819  141.7941  168.8877 C.ar    1  UNL1        0.0196
      6 C         142.6511  142.1179  170.3466 C.ar    1  UNL1        0.0014
      7 C         141.4234  141.7002  171.1004 C.ar    1  UNL1        0.0009
      8 C         140.3264  140.9588  170.3953 C.ar    1  UNL1        0.0127
      9 C         140.4572  140.6351  168.9365 C.ar    1  UNL1        0.0751
     10 CL        139.3603  139.8937  168.2316 Cl      1  UNL1       -0.0809
     11 C         141.9466  140.4053  165.2651 C.2     1  UNL1        0.1293
     12 C         142.9136  139.3510  164.8146 C.2     1  UNL1        0.0400
     13 C         143.0444  139.0273  163.3557 C.ar    1  UNL1        0.0932
     14 N         144.0298  139.7748  162.5070 N.ar    1  UNL1       -0.2429
     15 C         144.1605  139.4511  161.0483 C.ar    1  UNL1        0.0989
     16 C         143.3059  138.3799  160.4382 C.ar    1  UNL1        0.0215
     17 C         142.3206  137.6324  161.2869 C.ar    1  UNL1        0.0145
     18 C         142.1898  137.9561  162.7456 C.ar    1  UNL1        0.0753
     19 CL        141.2045  137.2086  163.5944 Cl      1  UNL1       -0.0807
@<TRIPOS>BOND
     1     1     2    2
     2     2     3    2
     3     2    11    1
     4    11    12    2
     5    12    13    1
     6    13    14   ar
     7    14    15   ar
     8    15    16   ar
     9    16    17   ar
    10    17    18   ar
    11    18    19    1
    12     2     4    1
    13     4     5   ar
    14     5     6   ar
    15     6     7   ar
    16     7     8   ar
    17     8     9   ar
    18     9    10    1
    19    18    13   ar
    20     9     4   ar
