@<TRIPOS>MOLECULE
*****
 19 19 0 0 0
SMALL
GASTEIGER

@<TRIPOS>ATOM
      1 C         139.9005  140.8526  166.8060 C.2     1  UNL1       -0.0134
      2 C         138.7673  140.3833  165.9423 C.2     1  UNL1       -0.0290
      3 C         140.6259  142.1211  166.4674 C.3     1  UNL1        0.0985
      4 N         140.8319  142.5072  165.0327 N.3     1  UNL1       -0.2690
      5 C         141.4617  141.5369  164.0778 C.3     1  UNL1        0.0724
      6 C         140.8943  141.3653  162.6999 C.3     1  UNL1        0.0188
      7 C         140.4080  143.8638  164.5528 C.3     1  UNL1        0.0724
      8 C         139.1483  144.4855  165.0786 C.3     1  UNL1        0.0173
      9 C         137.6827  143.1616  163.3905 C.3     1  UNL1        0.0000
     10 C         137.8136  143.9383  164.6671 C.3     1  UNL1        0.0014
     11 C         138.0418  139.1148  166.2809 C.3     1  UNL1        0.0304
     12 C         138.4856  137.8138  165.6805 C.3     1  UNL1        0.0310
     13 C         139.4272  137.8092  164.5129 C.ar    1  UNL1       -0.0218
     14 C         138.8899  137.9049  163.1157 C.ar    1  UNL1       -0.0034
     15 C         139.8316  137.9002  161.9481 C.ar    1  UNL1        0.0111
     16 C         141.3105  137.7999  162.1776 C.ar    1  UNL1        0.0577
     17 CL        142.2521  137.7952  161.0100 Cl      1  UNL1       -0.0822
     18 C         141.8477  137.7042  163.5748 C.ar    1  UNL1        0.0111
     19 C         140.9061  137.7088  164.7424 C.ar    1  UNL1       -0.0034
@<TRIPOS>BOND
     1     9    10    1
     2    10     8    1
     3     8     7    1
     4     7     4    1
     5     4     5    1
     6     5     6    1
     7     4     3    1
     8     3     1    1
     9     1     2    2
    10     2    11    1
    11    11    12    1
    12    12    13    1
    13    13    14   ar
    14    14    15   ar
    15    15    16   ar
    16    16    17    1
    17    16    18   ar
    18    18    19   ar
    19    19    13   ar
@<TRIPOS>MOLECULE
*****
 19 19 0 0 0
SMALL
GASTEIGER

@<TRIPOS>ATOM
      1 C         139.4253  140.1641  168.2104 C.2     1  UNL1       -0.0134
      2 C         139.1109  139.7240  166.8113 C.2     1  UNL1       -0.0290
      3 C         140.4839  141.1992  168.4510 C.3     1  UNL1        0.0985
      4 N         141.9199  140.8874  168.1500 N.3     1  UNL1       -0.2690
      5 C         142.4939  139.5551  168.5313 C.3     1  UNL1        0.0724
      6 C         142.4643  139.1076  169.9628 C.3     1  UNL1        0.0188
      7 C         142.7819  141.9080  167.4677 C.3     1  UNL1        0.0724
      8 C         142.8496  141.9517  165.9699 C.3     1  UNL1        0.0173
      9 C         141.1743  141.1099  164.1714 C.3     1  UNL1        0.0000
     10 C         142.2677  140.8314  165.1598 C.3     1  UNL1        0.0014
     11 C         138.0523  138.6889  166.5707 C.3     1  UNL1        0.0304
     12 C         138.3595  137.4822  165.7344 C.3     1  UNL1        0.0310
     13 C         139.2635  137.6052  164.5437 C.ar    1  UNL1       -0.0218
     14 C         140.7337  137.3455  164.6883 C.ar    1  UNL1       -0.0034
     15 C         141.6377  137.4686  163.4976 C.ar    1  UNL1        0.0111
     16 C         141.0715  137.8514  162.1624 C.ar    1  UNL1        0.0577
     17 CL        141.9755  137.9745  160.9717 Cl      1  UNL1       -0.0822
     18 C         139.6013  138.1111  162.0179 C.ar    1  UNL1        0.0111
     19 C         138.6973  137.9880  163.2085 C.ar    1  UNL1       -0.0034
@<TRIPOS>BOND
     1     9    10    1
     2    10     8    1
     3     8     7    1
     4     7     4    1
     5     4     5    1
     6     5     6    1
     7     4     3    1
     8     3     1    1
     9     1     2    2
    10     2    11    1
    11    11    12    1
    12    12    13    1
    13    13    14   ar
    14    14    15   ar
    15    15    16   ar
    16    16    17    1
    17    16    18   ar
    18    18    19   ar
    19    19    13   ar
@<TRIPOS>MOLECULE
*****
 19 19 0 0 0
SMALL
GASTEIGER

@<TRIPOS>ATOM
      1 C         137.5772  141.3793  163.3213 C.2     1  UNL1       -0.0134
      2 C         138.7169  140.4069  163.3975 C.2     1  UNL1       -0.0290
      3 C         137.6987  142.6124  162.4758 C.3     1  UNL1        0.0985
      4 N         138.3349  143.8484  163.0393 N.3     1  UNL1       -0.2690
      5 C         139.3336  144.6159  162.2247 C.3     1  UNL1        0.0724
      6 C         140.2992  143.8854  161.3392 C.3     1  UNL1        0.0188
      7 C         137.9723  144.3169  164.4174 C.3     1  UNL1        0.0724
      8 C         139.0277  144.4121  165.4790 C.3     1  UNL1        0.0173
      9 C         141.1331  142.9259  165.1496 C.3     1  UNL1        0.0000
     10 C         139.8334  143.2014  165.8462 C.3     1  UNL1        0.0014
     11 C         138.5954  139.1738  164.2429 C.3     1  UNL1        0.0304
     12 C         138.3347  139.2965  165.7150 C.3     1  UNL1        0.0310
     13 C         139.4719  139.5515  166.6593 C.ar    1  UNL1       -0.0218
     14 C         139.1935  139.9455  168.0796 C.ar    1  UNL1       -0.0034
     15 C         140.3306  140.2005  169.0239 C.ar    1  UNL1        0.0111
     16 C         141.7463  140.0616  168.5480 C.ar    1  UNL1        0.0577
     17 CL        142.8835  140.3166  169.4923 Cl      1  UNL1       -0.0822
     18 C         142.0248  139.6676  167.1277 C.ar    1  UNL1        0.0111
     19 C         140.8876  139.4126  166.1834 C.ar    1  UNL1       -0.0034
@<TRIPOS>BOND
     1     9    10    1
     2    10     8    1
     3     8     7    1
     4     7     4    1
     5     4     5    1
     6     5     6    1
     7     4     3    1
     8     3     1    1
     9     1     2    2
    10     2    11    1
    11    11    12    1
    12    12    13    1
    13    13    14   ar
    14    14    15   ar
    15    15    16   ar
    16    16    17    1
    17    16    18   ar
    18    18    19   ar
    19    19    13   ar
@<TRIPOS>MOLECULE
*****
 19 19 0 0 0
SMALL
GASTEIGER

@<TRIPOS>ATOM
      1 C         137.7289  141.6889  163.8619 C.2     1  UNL1       -0.0134
      2 C         138.0665  142.8960  163.0379 C.2     1  UNL1       -0.0290
      3 C         137.8909  140.3153  163.2814 C.3     1  UNL1        0.0985
      4 N         138.5018  139.2204  164.1046 N.3     1  UNL1       -0.2690
      5 C         138.7609  139.4364  165.5662 C.3     1  UNL1        0.0724
      6 C         137.8973  138.7597  166.5891 C.3     1  UNL1        0.0188
      7 C         138.8535  137.9092  163.4663 C.3     1  UNL1        0.0724
      8 C         140.2915  137.5466  163.2411 C.3     1  UNL1        0.0173
      9 C         142.1184  138.0495  165.0186 C.3     1  UNL1        0.0000
     10 C         141.1413  137.0987  164.3932 C.3     1  UNL1        0.0014
     11 C         137.9045  144.2696  163.6184 C.3     1  UNL1        0.0304
     12 C         138.8185  144.7335  164.7136 C.3     1  UNL1        0.0310
     13 C         140.2519  144.2921  164.7316 C.ar    1  UNL1       -0.0218
     14 C         140.6771  143.1602  165.6191 C.ar    1  UNL1       -0.0034
     15 C         142.1106  142.7188  165.6370 C.ar    1  UNL1        0.0111
     16 C         143.1189  143.4095  164.7674 C.ar    1  UNL1        0.0577
     17 CL        144.5524  142.9681  164.7853 Cl      1  UNL1       -0.0822
     18 C         142.6937  144.5415  163.8799 C.ar    1  UNL1        0.0111
     19 C         141.2603  144.9828  163.8619 C.ar    1  UNL1       -0.0034
@<TRIPOS>BOND
     1     9    10    1
     2    10     8    1
     3     8     7    1
     4     7     4    1
     5     4     5    1
     6     5     6    1
     7     4     3    1
     8     3     1    1
     9     1     2    2
    10     2    11    1
    11    11    12    1
    12    12    13    1
    13    13    14   ar
    14    14    15   ar
    15    15    16   ar
    16    16    17    1
    17    16    18   ar
    18    18    19   ar
    19    19    13   ar
@<TRIPOS>MOLECULE
*****
 19 19 0 0 0
SMALL
GASTEIGER

@<TRIPOS>ATOM
      1 C         137.7007  141.4445  163.5510 C.2     1  UNL1       -0.0134
      2 C         137.9683  142.9002  163.3073 C.2     1  UNL1       -0.0290
      3 C         137.9544  140.4431  162.4634 C.3     1  UNL1        0.0985
      4 N         139.0486  139.4288  162.6181 N.3     1  UNL1       -0.2690
      5 C         140.4227  139.7219  162.0928 C.3     1  UNL1        0.0724
      6 C         141.1073  141.0057  162.4582 C.3     1  UNL1        0.0188
      7 C         138.7688  138.1214  163.2982 C.3     1  UNL1        0.0724
      8 C         139.2075  137.9046  164.7161 C.3     1  UNL1        0.0173
      9 C         139.1155  139.7148  166.5775 C.3     1  UNL1        0.0000
     10 C         138.4748  138.5771  165.8390 C.3     1  UNL1        0.0014
     11 C         137.7146  143.9017  164.3949 C.3     1  UNL1        0.0304
     12 C         138.8481  144.7168  164.9432 C.3     1  UNL1        0.0310
     13 C         140.2469  144.1762  164.9068 C.ar    1  UNL1       -0.0218
     14 C         141.2545  144.7657  163.9649 C.ar    1  UNL1       -0.0034
     15 C         142.6532  144.2252  163.9285 C.ar    1  UNL1        0.0111
     16 C         143.0444  143.0952  164.8340 C.ar    1  UNL1        0.0577
     17 CL        144.4431  142.5546  164.7976 Cl      1  UNL1       -0.0822
     18 C         142.0368  142.5057  165.7759 C.ar    1  UNL1        0.0111
     19 C         140.6380  143.0462  165.8123 C.ar    1  UNL1       -0.0034
@<TRIPOS>BOND
     1     9    10    1
     2    10     8    1
     3     8     7    1
     4     7     4    1
     5     4     5    1
     6     5     6    1
     7     4     3    1
     8     3     1    1
     9     1     2    2
    10     2    11    1
    11    11    12    1
    12    12    13    1
    13    13    14   ar
    14    14    15   ar
    15    15    16   ar
    16    16    17    1
    17    16    18   ar
    18    18    19   ar
    19    19    13   ar
@<TRIPOS>MOLECULE
*****
 19 19 0 0 0
SMALL
GASTEIGER

@<TRIPOS>ATOM
      1 C         140.8901  141.5468  167.1242 C.2     1  UNL1       -0.0134
      2 C         140.5580  140.1600  167.5897 C.2     1  UNL1       -0.0290
      3 C         142.2561  141.8492  166.5831 C.3     1  UNL1        0.0985
      4 N         142.4908  141.8586  165.1017 N.3     1  UNL1       -0.2690
      5 C         143.4906  142.8054  164.5067 C.3     1  UNL1        0.0724
      6 C         144.4894  143.4936  165.3893 C.3     1  UNL1        0.0188
      7 C         141.7258  140.9211  164.2151 C.3     1  UNL1        0.0724
      8 C         142.4431  139.8213  163.4901 C.3     1  UNL1        0.0173
      9 C         142.8108  138.2665  165.5389 C.3     1  UNL1        0.0000
     10 C         142.4988  138.4444  164.0825 C.3     1  UNL1        0.0014
     11 C         139.1921  139.8576  168.1307 C.3     1  UNL1        0.0304
     12 C         138.2142  139.0759  167.3044 C.3     1  UNL1        0.0310
     13 C         138.3888  138.9906  165.8171 C.ar    1  UNL1       -0.0218
     14 C         138.8730  137.7167  165.1906 C.ar    1  UNL1       -0.0034
     15 C         139.0476  137.6314  163.7032 C.ar    1  UNL1        0.0111
     16 C         138.7379  138.8200  162.8423 C.ar    1  UNL1        0.0577
     17 CL        138.9125  138.7347  161.3550 Cl      1  UNL1       -0.0822
     18 C         138.2537  140.0940  163.4688 C.ar    1  UNL1        0.0111
     19 C         138.0792  140.1793  164.9562 C.ar    1  UNL1       -0.0034
@<TRIPOS>BOND
     1     9    10    1
     2    10     8    1
     3     8     7    1
     4     7     4    1
     5     4     5    1
     6     5     6    1
     7     4     3    1
     8     3     1    1
     9     1     2    2
    10     2    11    1
    11    11    12    1
    12    12    13    1
    13    13    14   ar
    14    14    15   ar
    15    15    16   ar
    16    16    17    1
    17    16    18   ar
    18    18    19   ar
    19    19    13   ar
@<TRIPOS>MOLECULE
*****
 19 19 0 0 0
SMALL
GASTEIGER

@<TRIPOS>ATOM
      1 C         138.1932  141.4906  163.1309 C.2     1  UNL1       -0.0134
      2 C         137.7595  142.1658  164.3983 C.2     1  UNL1       -0.0290
      3 C         138.2719  139.9940  163.0675 C.3     1  UNL1        0.0985
      4 N         139.3841  139.2711  163.7676 N.3     1  UNL1       -0.2690
      5 C         140.7525  139.8823  163.8317 C.3     1  UNL1        0.0724
      6 C         141.8601  139.1680  164.5481 C.3     1  UNL1        0.0188
      7 C         139.1281  137.9369  164.4035 C.3     1  UNL1        0.0724
      8 C         138.4312  137.8594  165.7295 C.3     1  UNL1        0.0173
      9 C         139.2828  139.7282  167.3210 C.3     1  UNL1        0.0000
     10 C         138.1771  139.1103  166.5174 C.3     1  UNL1        0.0014
     11 C         137.6809  143.6624  164.4618 C.3     1  UNL1        0.0304
     12 C         138.7583  144.4413  165.1564 C.3     1  UNL1        0.0310
     13 C         140.1770  143.9555  165.1202 C.ar    1  UNL1       -0.0218
     14 C         140.6562  142.9635  166.1381 C.ar    1  UNL1       -0.0034
     15 C         142.0749  142.4777  166.1019 C.ar    1  UNL1        0.0111
     16 C         143.0144  142.9839  165.0478 C.ar    1  UNL1        0.0577
     17 CL        144.4331  142.4981  165.0116 Cl      1  UNL1       -0.0822
     18 C         142.5351  143.9759  164.0299 C.ar    1  UNL1        0.0111
     19 C         141.1164  144.4617  164.0661 C.ar    1  UNL1       -0.0034
@<TRIPOS>BOND
     1     9    10    1
     2    10     8    1
     3     8     7    1
     4     7     4    1
     5     4     5    1
     6     5     6    1
     7     4     3    1
     8     3     1    1
     9     1     2    2
    10     2    11    1
    11    11    12    1
    12    12    13    1
    13    13    14   ar
    14    14    15   ar
    15    15    16   ar
    16    16    17    1
    17    16    18   ar
    18    18    19   ar
    19    19    13   ar
@<TRIPOS>MOLECULE
*****
 19 19 0 0 0
SMALL
GASTEIGER

@<TRIPOS>ATOM
      1 C         139.5510  140.4433  168.1390 C.2     1  UNL1       -0.0134
      2 C         138.5972  139.3854  167.6685 C.2     1  UNL1       -0.0290
      3 C         139.8160  140.6157  169.6053 C.3     1  UNL1        0.0985
      4 N         141.2158  140.5051  170.1326 N.3     1  UNL1       -0.2690
      5 C         141.9603  139.2079  170.0176 C.3     1  UNL1        0.0724
      6 C         142.7500  138.9037  168.7791 C.3     1  UNL1        0.0188
      7 C         141.8713  141.6916  170.7751 C.3     1  UNL1        0.0724
      8 C         142.4205  142.7974  169.9234 C.3     1  UNL1        0.0173
      9 C         142.8944  142.2311  167.4325 C.3     1  UNL1        0.0000
     10 C         143.3925  142.4855  168.8243 C.3     1  UNL1        0.0014
     11 C         138.3323  139.2130  166.2022 C.3     1  UNL1        0.0304
     12 C         138.8219  137.9866  165.4907 C.3     1  UNL1        0.0310
     13 C         140.0682  138.0498  164.6583 C.ar    1  UNL1       -0.0218
     14 C         140.0493  137.5585  163.2412 C.ar    1  UNL1       -0.0034
     15 C         141.2955  137.6216  162.4088 C.ar    1  UNL1        0.0111
     16 C         142.5607  138.1761  162.9936 C.ar    1  UNL1        0.0577
     17 CL        143.8069  138.2392  162.1612 Cl      1  UNL1       -0.0822
     18 C         142.5796  138.6673  164.4107 C.ar    1  UNL1        0.0111
     19 C         141.3333  138.6042  165.2431 C.ar    1  UNL1       -0.0034
@<TRIPOS>BOND
     1     9    10    1
     2    10     8    1
     3     8     7    1
     4     7     4    1
     5     4     5    1
     6     5     6    1
     7     4     3    1
     8     3     1    1
     9     1     2    2
    10     2    11    1
    11    11    12    1
    12    12    13    1
    13    13    14   ar
    14    14    15   ar
    15    15    16   ar
    16    16    17    1
    17    16    18   ar
    18    18    19   ar
    19    19    13   ar
@<TRIPOS>MOLECULE
*****
 19 19 0 0 0
SMALL
GASTEIGER

@<TRIPOS>ATOM
      1 C         141.0874  142.0363  166.3183 C.2     1  UNL1       -0.0134
      2 C         141.0272  140.6506  166.8895 C.2     1  UNL1       -0.0290
      3 C         142.2319  142.4340  165.4340 C.3     1  UNL1        0.0985
      4 N         141.9672  142.9415  164.0475 N.3     1  UNL1       -0.2690
      5 C         142.9976  143.7746  163.3444 C.3     1  UNL1        0.0724
      6 C         143.4594  145.0662  163.9515 C.3     1  UNL1        0.0188
      7 C         140.6722  142.6159  163.3641 C.3     1  UNL1        0.0724
      8 C         139.5402  143.5995  163.3945 C.3     1  UNL1        0.0173
      9 C         138.6164  144.8811  165.4571 C.3     1  UNL1        0.0000
     10 C         139.5934  144.7758  164.3237 C.3     1  UNL1        0.0014
     11 C         139.8827  140.2530  167.7739 C.3     1  UNL1        0.0304
     12 C         138.7671  139.4141  167.2249 C.3     1  UNL1        0.0310
     13 C         138.6431  139.2066  165.7445 C.ar    1  UNL1       -0.0218
     14 C         138.1208  140.3105  164.8736 C.ar    1  UNL1       -0.0034
     15 C         137.9968  140.1031  163.3932 C.ar    1  UNL1        0.0111
     16 C         138.3952  138.7917  162.7837 C.ar    1  UNL1        0.0577
     17 CL        138.2713  138.5843  161.3033 Cl      1  UNL1       -0.0822
     18 C         138.9176  137.6878  163.6546 C.ar    1  UNL1        0.0111
     19 C         139.0415  137.8952  165.1350 C.ar    1  UNL1       -0.0034
@<TRIPOS>BOND
     1     9    10    1
     2    10     8    1
     3     8     7    1
     4     7     4    1
     5     4     5    1
     6     5     6    1
     7     4     3    1
     8     3     1    1
     9     1     2    2
    10     2    11    1
    11    11    12    1
    12    12    13    1
    13    13    14   ar
    14    14    15   ar
    15    15    16   ar
    16    16    17    1
    17    16    18   ar
    18    18    19   ar
    19    19    13   ar
