@<TRIPOS>MOLECULE
*****
 36 40 0 0 0
SMALL
GASTEIGER

@<TRIPOS>ATOM
      1 C         139.9087  139.6285  162.9715 C.ar    1  UNL1        0.0878
      2 C         138.7807  138.8321  163.5574 C.ar    1  UNL1        0.1543
      3 F         137.9007  138.0088  162.6642 F       1  UNL1       -0.2028
      4 C         138.5328  138.8588  165.0365 C.ar    1  UNL1        0.0356
      5 C         139.4128  139.6821  165.9297 C.ar    1  UNL1        0.0580
      6 C         139.1649  139.7088  167.4089 C.ar    1  UNL1        0.1996
      7 O         138.0369  138.9124  167.9948 O.2     1  UNL1       -0.2864
      8 C         140.0449  140.5321  168.3021 C.ar    1  UNL1        0.0701
      9 C         141.1729  141.3286  167.7161 C.ar    1  UNL1        0.0801
     10 N         141.4208  141.3018  166.2370 N.ar    1  UNL1       -0.3270
     11 C         140.5408  140.4786  165.3438 C.ar    1  UNL1        0.0750
     12 C         140.7887  140.4518  163.8647 C.ar    1  UNL1        0.0890
     13 CL        141.9167  141.2483  163.2787 Cl      1  UNL1       -0.0794
     14 C         140.7382  138.8392  159.2628 C.3     1  UNL1        0.0929
     15 C         140.3382  140.2820  159.1696 C.3     1  UNL1        0.0427
     16 C         139.9788  140.7532  160.5476 C.3     1  UNL1        0.0927
     17 N         140.1566  139.6018  161.4923 N.pl3   1  UNL1       -0.3033
     18 C         140.6260  138.4189  160.6983 C.3     1  UNL1        0.1104
     19 C         142.6036  137.9880  157.6671 C.2     1  UNL1        0.2246
     20 O         143.5975  138.8762  158.3553 O.2     1  UNL1       -0.2750
     21 N         141.1739  137.9696  158.1209 N.am    1  UNL1       -0.3042
     22 H         140.5216  137.3867  157.6693 H       1  UNL1        0.1494
     23 C         143.0393  137.1184  156.5253 C.3     1  UNL1        0.1133
     24 C         142.2143  135.9294  156.1308 C.3     1  UNL1        0.1608
     25 C         145.1188  131.9165  157.9584 C.3     1  UNL1        0.0776
     26 C         144.0032  132.7026  157.3361 C.ar    1  UNL1        0.1838
     27 N         142.7298  132.1376  156.7801 N.ar    1  UNL1       -0.1123
     28 N         141.9047  133.2776  156.2609 N.ar    1  UNL1       -0.0454
     29 N         142.6681  134.5471  156.4960 N.ar    1  UNL1       -0.1508
     30 N         143.9650  134.1918  157.1606 N.ar    1  UNL1       -0.1342
     31 C         139.7970  140.5588  169.7812 C.2     1  UNL1        0.0774
     32 O         140.2256  139.4021  170.6345 O.co2   1  UNL1       -0.5444
     33 O         139.1205  141.7424  170.4070 O.co2   1  UNL1       -0.5444
     34 C         142.5488  142.0983  165.6511 C.3     1  UNL1        0.0857
     35 C         143.9920  142.2120  165.2585 C.3     1  UNL1        0.0245
     36 C         143.0593  143.3640  165.0289 C.3     1  UNL1        0.0245
@<TRIPOS>UNITY_ATOM_ATTR
32 1
charge -1
@<TRIPOS>BOND
     1    25    26    1
     2    26    27   ar
     3    27    28   ar
     4    28    29   ar
     5    29    24    1
     6    24    23    1
     7    23    19    1
     8    19    20    2
     9    19    21   am
    10    21    14    1
    11    14    15    1
    12    15    16    1
    13    16    17    1
    14    17     1    1
    15     1     2   ar
    16     2     3    1
    17     2     4   ar
    18     4     5   ar
    19     5     6   ar
    20     6     7    2
    21     6     8   ar
    22     8    31    1
    23    31    32   ar
    24    31    33   ar
    25     8     9   ar
    26     9    10   ar
    27    10    34    1
    28    34    35    1
    29    35    36    1
    30    10    11   ar
    31    11    12   ar
    32    12    13    1
    33    17    18    1
    34    29    30   ar
    35    30    26   ar
    36    18    14    1
    37    12     1   ar
    38    11     5   ar
    39    36    34    1
    40    21    22    1
@<TRIPOS>MOLECULE
*****
 36 40 0 0 0
SMALL
GASTEIGER

@<TRIPOS>ATOM
      1 C         139.1870  139.8937  163.3842 C.ar    1  UNL1        0.0878
      2 C         138.7827  138.8150  164.3449 C.ar    1  UNL1        0.1543
      3 F         138.2092  137.5282  163.8298 F       1  UNL1       -0.2028
      4 C         138.9520  139.0230  165.8207 C.ar    1  UNL1        0.0356
      5 C         139.5256  140.3098  166.3358 C.ar    1  UNL1        0.0580
      6 C         139.6948  140.5178  167.8117 C.ar    1  UNL1        0.1996
      7 O         139.2906  139.4391  168.7724 O.2     1  UNL1       -0.2864
      8 C         140.2684  141.8045  168.3268 C.ar    1  UNL1        0.0701
      9 C         140.6726  142.8832  167.3660 C.ar    1  UNL1        0.0801
     10 N         140.5034  142.6752  165.8903 N.ar    1  UNL1       -0.3270
     11 C         139.9298  141.3885  165.3751 C.ar    1  UNL1        0.0750
     12 C         139.7605  141.1804  163.8993 C.ar    1  UNL1        0.0890
     13 CL        140.1648  142.2591  162.9386 Cl      1  UNL1       -0.0794
     14 C         138.1787  139.8429  159.6363 C.3     1  UNL1        0.0929
     15 C         139.3358  138.8883  159.6382 C.3     1  UNL1        0.0427
     16 C         139.8543  138.7911  161.0423 C.3     1  UNL1        0.0927
     17 N         139.0177  139.6856  161.9083 N.pl3   1  UNL1       -0.3033
     18 C         137.9821  140.3357  161.0394 C.3     1  UNL1        0.1104
     19 C         137.7301  141.4547  157.6487 C.2     1  UNL1        0.2246
     20 O         138.9156  142.2810  158.0512 O.2     1  UNL1       -0.2750
     21 N         137.3616  140.2357  158.4413 N.am    1  UNL1       -0.3042
     22 H         136.5835  139.6934  158.1772 H       1  UNL1        0.1494
     23 C         136.9130  141.8475  156.4537 C.3     1  UNL1        0.1133
     24 C         136.0838  140.8203  155.7416 C.3     1  UNL1        0.1608
     25 C         130.8069  140.8929  155.9126 C.3     1  UNL1        0.0776
     26 C         132.2412  140.6073  156.2459 C.ar    1  UNL1        0.1838
     27 N         132.7310  139.7823  157.3989 N.ar    1  UNL1       -0.1123
     28 N         134.2301  139.7617  157.3503 N.ar    1  UNL1       -0.0454
     29 N         134.6667  140.5739  156.1673 N.ar    1  UNL1       -0.1508
     30 N         133.4375  141.0965  155.4847 N.ar    1  UNL1       -0.1342
     31 C         140.4376  142.0126  169.8026 C.2     1  UNL1        0.0774
     32 O         141.8059  141.9616  170.4151 O.co2   1  UNL1       -0.5444
     33 O         139.2386  142.2716  170.6659 O.co2   1  UNL1       -0.5444
     34 C         140.9076  143.7539  164.9296 C.3     1  UNL1        0.0857
     35 C         141.9766  144.4896  164.1772 C.3     1  UNL1        0.0245
     36 C         140.5389  144.8866  164.0180 C.3     1  UNL1        0.0245
@<TRIPOS>UNITY_ATOM_ATTR
32 1
charge -1
@<TRIPOS>BOND
     1    25    26    1
     2    26    27   ar
     3    27    28   ar
     4    28    29   ar
     5    29    24    1
     6    24    23    1
     7    23    19    1
     8    19    20    2
     9    19    21   am
    10    21    14    1
    11    14    15    1
    12    15    16    1
    13    16    17    1
    14    17     1    1
    15     1     2   ar
    16     2     3    1
    17     2     4   ar
    18     4     5   ar
    19     5     6   ar
    20     6     7    2
    21     6     8   ar
    22     8    31    1
    23    31    32   ar
    24    31    33   ar
    25     8     9   ar
    26     9    10   ar
    27    10    34    1
    28    34    35    1
    29    35    36    1
    30    10    11   ar
    31    11    12   ar
    32    12    13    1
    33    17    18    1
    34    29    30   ar
    35    30    26   ar
    36    18    14    1
    37    12     1   ar
    38    11     5   ar
    39    36    34    1
    40    21    22    1
@<TRIPOS>MOLECULE
*****
 36 40 0 0 0
SMALL
GASTEIGER

@<TRIPOS>ATOM
      1 C         142.8121  140.8888  164.7072 C.ar    1  UNL1        0.0878
      2 C         143.7558  141.8065  165.4264 C.ar    1  UNL1        0.1543
      3 F         145.0340  142.2339  164.7680 F       1  UNL1       -0.2028
      4 C         143.4212  142.2968  166.8039 C.ar    1  UNL1        0.0356
      5 C         142.1429  141.8695  167.4622 C.ar    1  UNL1        0.0580
      6 C         141.8084  142.3598  168.8398 C.ar    1  UNL1        0.1996
      7 O         142.7520  143.2775  169.5590 O.2     1  UNL1       -0.2864
      8 C         140.5301  141.9324  169.4981 C.ar    1  UNL1        0.0701
      9 C         139.5864  141.0147  168.7788 C.ar    1  UNL1        0.0801
     10 N         139.9210  140.5244  167.4013 N.ar    1  UNL1       -0.3270
     11 C         141.1993  140.9518  166.7430 C.ar    1  UNL1        0.0750
     12 C         141.5339  140.4614  165.3655 C.ar    1  UNL1        0.0890
     13 CL        140.5902  139.5437  164.6462 Cl      1  UNL1       -0.0794
     14 C         143.3031  140.2324  160.9132 C.3     1  UNL1        0.0929
     15 C         144.0199  139.0556  161.5062 C.3     1  UNL1        0.0427
     16 C         143.9232  139.1583  162.9995 C.3     1  UNL1        0.0927
     17 N         143.1467  140.3985  163.3296 N.pl3   1  UNL1       -0.3033
     18 C         142.7635  141.0623  162.0402 C.3     1  UNL1        0.1104
     19 C         143.9081  141.6668  158.8332 C.2     1  UNL1        0.2246
     20 O         144.8144  142.5112  159.6792 O.2     1  UNL1       -0.2750
     21 N         143.1524  140.5273  159.4503 N.am    1  UNL1       -0.3042
     22 H         142.5576  139.9731  158.8951 H       1  UNL1        0.1494
     23 C         143.7574  141.9617  157.3703 C.3     1  UNL1        0.1133
     24 C         144.5803  141.2115  156.3652 C.3     1  UNL1        0.1608
     25 C         142.4465  136.3831  156.4786 C.3     1  UNL1        0.0776
     26 C         143.3965  137.5175  156.2326 C.ar    1  UNL1        0.1838
     27 N         144.7333  137.4178  155.5597 N.ar    1  UNL1       -0.1123
     28 N         145.3395  138.7894  155.5275 N.ar    1  UNL1       -0.0454
     29 N         144.3773  139.7369  156.1805 N.ar    1  UNL1       -0.1508
     30 N         143.1764  138.9507  156.6162 N.ar    1  UNL1       -0.1342
     31 C         140.1955  142.4227  170.8756 C.2     1  UNL1        0.0774
     32 O         140.8117  141.7666  172.0755 O.co2   1  UNL1       -0.5444
     33 O         139.2446  143.5692  171.0533 O.co2   1  UNL1       -0.5444
     34 C         138.9774  139.6067  166.6821 C.3     1  UNL1        0.0857
     35 C         138.2886  138.2788  166.5710 C.3     1  UNL1        0.0245
     36 C         138.0316  139.3450  165.5477 C.3     1  UNL1        0.0245
@<TRIPOS>UNITY_ATOM_ATTR
32 1
charge -1
@<TRIPOS>BOND
     1    25    26    1
     2    26    27   ar
     3    27    28   ar
     4    28    29   ar
     5    29    24    1
     6    24    23    1
     7    23    19    1
     8    19    20    2
     9    19    21   am
    10    21    14    1
    11    14    15    1
    12    15    16    1
    13    16    17    1
    14    17     1    1
    15     1     2   ar
    16     2     3    1
    17     2     4   ar
    18     4     5   ar
    19     5     6   ar
    20     6     7    2
    21     6     8   ar
    22     8    31    1
    23    31    32   ar
    24    31    33   ar
    25     8     9   ar
    26     9    10   ar
    27    10    34    1
    28    34    35    1
    29    35    36    1
    30    10    11   ar
    31    11    12   ar
    32    12    13    1
    33    17    18    1
    34    29    30   ar
    35    30    26   ar
    36    18    14    1
    37    12     1   ar
    38    11     5   ar
    39    36    34    1
    40    21    22    1
@<TRIPOS>MOLECULE
*****
 36 40 0 0 0
SMALL
GASTEIGER

@<TRIPOS>ATOM
      1 C         140.6247  139.6044  164.3095 C.ar    1  UNL1        0.0878
      2 C         141.3111  138.6835  165.2742 C.ar    1  UNL1        0.1543
      3 F         141.7003  137.3004  164.8431 F       1  UNL1       -0.2028
      4 C         141.6085  139.1456  166.6698 C.ar    1  UNL1        0.0356
      5 C         141.2194  140.5286  167.1009 C.ar    1  UNL1        0.0580
      6 C         141.5168  140.9907  168.4967 C.ar    1  UNL1        0.1996
      7 O         142.2033  140.0698  169.4613 O.2     1  UNL1       -0.2864
      8 C         141.1277  142.3737  168.9277 C.ar    1  UNL1        0.0701
      9 C         140.4412  143.2947  167.9630 C.ar    1  UNL1        0.0801
     10 N         140.1438  142.8326  166.5673 N.ar    1  UNL1       -0.3270
     11 C         140.5329  141.4495  166.1363 C.ar    1  UNL1        0.0750
     12 C         140.2355  140.9874  164.7406 C.ar    1  UNL1        0.0890
     13 CL        139.5490  141.9084  163.7759 Cl      1  UNL1       -0.0794
     14 C         140.5039  138.7509  160.5250 C.3     1  UNL1        0.0929
     15 C         139.2353  138.1117  161.0069 C.3     1  UNL1        0.0427
     16 C         139.1262  138.3536  162.4832 C.3     1  UNL1        0.0927
     17 N         140.3272  139.1423  162.9138 N.pl3   1  UNL1       -0.3033
     18 C         141.1787  139.3879  161.7035 C.3     1  UNL1        0.1104
     19 C         142.2441  137.9796  158.7566 C.2     1  UNL1        0.2246
     20 O         142.9742  137.2045  159.8132 O.2     1  UNL1       -0.2750
     21 N         141.0089  138.7528  159.1126 N.am    1  UNL1       -0.3042
     22 H         140.5297  139.2616  158.4192 H       1  UNL1        0.1494
     23 C         142.7491  137.9816  157.3442 C.3     1  UNL1        0.1133
     24 C         142.0926  137.1138  156.3118 C.3     1  UNL1        0.1608
     25 C         141.6095  131.9598  155.2710 C.3     1  UNL1        0.0776
     26 C         142.0615  133.2575  155.8723 C.ar    1  UNL1        0.1838
     27 N         143.0933  133.4182  156.9491 N.ar    1  UNL1       -0.1123
     28 N         143.2305  134.8824  157.2448 N.ar    1  UNL1       -0.0454
     29 N         142.2835  135.6265  156.3508 N.ar    1  UNL1       -0.1508
     30 N         141.5610  134.6223  155.5025 N.ar    1  UNL1       -0.1342
     31 C         141.4251  142.8358  170.3234 C.2     1  UNL1        0.0774
     32 O         140.4551  142.5492  171.4310 O.co2   1  UNL1       -0.5444
     33 O         142.6926  143.5846  170.6115 O.co2   1  UNL1       -0.5444
     34 C         139.4573  143.7535  165.6027 C.3     1  UNL1        0.0857
     35 C         139.5297  144.7881  164.5190 C.3     1  UNL1        0.0245
     36 C         138.1960  144.3141  165.0155 C.3     1  UNL1        0.0245
@<TRIPOS>UNITY_ATOM_ATTR
32 1
charge -1
@<TRIPOS>BOND
     1    25    26    1
     2    26    27   ar
     3    27    28   ar
     4    28    29   ar
     5    29    24    1
     6    24    23    1
     7    23    19    1
     8    19    20    2
     9    19    21   am
    10    21    14    1
    11    14    15    1
    12    15    16    1
    13    16    17    1
    14    17     1    1
    15     1     2   ar
    16     2     3    1
    17     2     4   ar
    18     4     5   ar
    19     5     6   ar
    20     6     7    2
    21     6     8   ar
    22     8    31    1
    23    31    32   ar
    24    31    33   ar
    25     8     9   ar
    26     9    10   ar
    27    10    34    1
    28    34    35    1
    29    35    36    1
    30    10    11   ar
    31    11    12   ar
    32    12    13    1
    33    17    18    1
    34    29    30   ar
    35    30    26   ar
    36    18    14    1
    37    12     1   ar
    38    11     5   ar
    39    36    34    1
    40    21    22    1
@<TRIPOS>MOLECULE
*****
 36 40 0 0 0
SMALL
GASTEIGER

@<TRIPOS>ATOM
      1 C         143.0189  141.1814  164.6083 C.ar    1  UNL1        0.0878
      2 C         143.9007  142.0868  165.4160 C.ar    1  UNL1        0.1543
      3 F         145.1720  142.6193  164.8241 F       1  UNL1       -0.2028
      4 C         143.5113  142.4598  166.8157 C.ar    1  UNL1        0.0356
      5 C         142.2400  141.9274  167.4076 C.ar    1  UNL1        0.0580
      6 C         141.8506  142.3004  168.8074 C.ar    1  UNL1        0.1996
      7 O         142.7324  143.2059  169.6152 O.2     1  UNL1       -0.2864
      8 C         140.5793  141.7680  169.3993 C.ar    1  UNL1        0.0701
      9 C         139.6975  140.8625  168.5915 C.ar    1  UNL1        0.0801
     10 N         140.0869  140.4895  167.1918 N.ar    1  UNL1       -0.3270
     11 C         141.3582  141.0220  166.5999 C.ar    1  UNL1        0.0750
     12 C         141.7476  140.6490  165.2002 C.ar    1  UNL1        0.0890
     13 CL        140.8658  139.7435  164.3923 Cl      1  UNL1       -0.0794
     14 C         143.8834  140.9398  160.8320 C.3     1  UNL1        0.0929
     15 C         144.1317  139.5290  161.2771 C.3     1  UNL1        0.0427
     16 C         143.8381  139.4478  162.7458 C.3     1  UNL1        0.0927
     17 N         143.4083  140.8084  163.2085 N.pl3   1  UNL1       -0.3033
     18 C         143.4363  141.7305  162.0257 C.3     1  UNL1        0.1104
     19 C         142.8470  141.8222  158.6190 C.2     1  UNL1        0.2246
     20 O         141.4723  141.6496  159.1941 O.2     1  UNL1       -0.2750
     21 N         144.0525  141.4673  159.4380 N.am    1  UNL1       -0.3042
     22 H         144.9547  141.5806  159.0606 H       1  UNL1        0.1494
     23 C         143.0160  142.3496  157.2251 C.3     1  UNL1        0.1133
     24 C         143.9571  141.6701  156.2750 C.3     1  UNL1        0.1608
     25 C         149.1129  141.7760  155.1407 C.3     1  UNL1        0.0776
     26 C         147.7996  141.9926  155.8322 C.ar    1  UNL1        0.1838
     27 N         147.5923  142.7383  157.1171 N.ar    1  UNL1       -0.1123
     28 N         146.1276  142.7083  157.4394 N.ar    1  UNL1       -0.0454
     29 N         145.4298  141.9440  156.3537 N.ar    1  UNL1       -0.1508
     30 N         146.4631  141.5017  155.3604 N.ar    1  UNL1       -0.1342
     31 C         140.1899  142.1410  170.7990 C.2     1  UNL1        0.0774
     32 O         139.2404  143.2778  171.0356 O.co2   1  UNL1       -0.5444
     33 O         140.7500  141.3771  171.9622 O.co2   1  UNL1       -0.5444
     34 C         139.2051  139.5841  166.3840 C.3     1  UNL1        0.0857
     35 C         138.9485  138.2508  165.7464 C.3     1  UNL1        0.0245
     36 C         137.9343  139.3490  165.6226 C.3     1  UNL1        0.0245
@<TRIPOS>UNITY_ATOM_ATTR
32 1
charge -1
@<TRIPOS>BOND
     1    25    26    1
     2    26    27   ar
     3    27    28   ar
     4    28    29   ar
     5    29    24    1
     6    24    23    1
     7    23    19    1
     8    19    20    2
     9    19    21   am
    10    21    14    1
    11    14    15    1
    12    15    16    1
    13    16    17    1
    14    17     1    1
    15     1     2   ar
    16     2     3    1
    17     2     4   ar
    18     4     5   ar
    19     5     6   ar
    20     6     7    2
    21     6     8   ar
    22     8    31    1
    23    31    32   ar
    24    31    33   ar
    25     8     9   ar
    26     9    10   ar
    27    10    34    1
    28    34    35    1
    29    35    36    1
    30    10    11   ar
    31    11    12   ar
    32    12    13    1
    33    17    18    1
    34    29    30   ar
    35    30    26   ar
    36    18    14    1
    37    12     1   ar
    38    11     5   ar
    39    36    34    1
    40    21    22    1
@<TRIPOS>MOLECULE
*****
 36 40 0 0 0
SMALL
GASTEIGER

@<TRIPOS>ATOM
      1 C         143.0725  140.2384  164.0184 C.ar    1  UNL1        0.0878
      2 C         143.9600  139.4227  164.9110 C.ar    1  UNL1        0.1543
      3 F         145.1809  138.7567  164.3490 F       1  UNL1       -0.2028
      4 C         143.6266  139.2729  166.3658 C.ar    1  UNL1        0.0356
      5 C         142.4057  139.9389  166.9279 C.ar    1  UNL1        0.0580
      6 C         142.0724  139.7891  168.3827 C.ar    1  UNL1        0.1996
      7 O         142.9599  138.9734  169.2754 O.2     1  UNL1       -0.2864
      8 C         140.8515  140.4550  168.9448 C.ar    1  UNL1        0.0701
      9 C         139.9639  141.2707  168.0521 C.ar    1  UNL1        0.0801
     10 N         140.2973  141.4205  166.5973 N.ar    1  UNL1       -0.3270
     11 C         141.5182  140.7546  166.0352 C.ar    1  UNL1        0.0750
     12 C         141.8516  140.9043  164.5804 C.ar    1  UNL1        0.0890
     13 CL        140.9640  141.7200  163.6877 Cl      1  UNL1       -0.0794
     14 C         143.7720  139.8911  160.2163 C.3     1  UNL1        0.0929
     15 C         144.0656  141.3461  160.4333 C.3     1  UNL1        0.0427
     16 C         143.8392  141.6532  161.8840 C.3     1  UNL1        0.0927
     17 N         143.4058  140.3882  162.5635 N.pl3   1  UNL1       -0.3033
     18 C         143.3643  139.2991  161.5328 C.3     1  UNL1        0.1104
     19 C         142.6431  138.9558  158.0713 C.2     1  UNL1        0.2246
     20 O         141.3199  139.4885  158.5355 O.2     1  UNL1       -0.2750
     21 N         143.8692  139.1571  158.9118 N.am    1  UNL1       -0.3042
     22 H         144.7376  138.8075  158.6071 H       1  UNL1        0.1494
     23 C         142.7403  138.2218  156.7668 C.3     1  UNL1        0.1133
     24 C         141.7054  137.1987  156.4030 C.3     1  UNL1        0.1608
     25 C         141.7746  132.0526  155.2228 C.3     1  UNL1        0.0776
     26 C         142.0935  133.3763  155.8521 C.ar    1  UNL1        0.1838
     27 N         143.1266  133.6228  156.9113 N.ar    1  UNL1       -0.1123
     28 N         143.1070  135.0847  157.2466 N.ar    1  UNL1       -0.0454
     29 N         142.0617  135.7416  156.3946 N.ar    1  UNL1       -0.1508
     30 N         141.4354  134.6857  155.5328 N.ar    1  UNL1       -0.1342
     31 C         140.5181  140.3053  170.3996 C.2     1  UNL1        0.0774
     32 O         139.2724  139.5789  170.8127 O.co2   1  UNL1       -0.5444
     33 O         141.4304  140.8819  171.4414 O.co2   1  UNL1       -0.5444
     34 C         139.4098  142.2362  165.7046 C.3     1  UNL1        0.0857
     35 C         139.0350  143.5577  165.1020 C.3     1  UNL1        0.0245
     36 C         138.2474  142.3275  164.7610 C.3     1  UNL1        0.0245
@<TRIPOS>UNITY_ATOM_ATTR
32 1
charge -1
@<TRIPOS>BOND
     1    25    26    1
     2    26    27   ar
     3    27    28   ar
     4    28    29   ar
     5    29    24    1
     6    24    23    1
     7    23    19    1
     8    19    20    2
     9    19    21   am
    10    21    14    1
    11    14    15    1
    12    15    16    1
    13    16    17    1
    14    17     1    1
    15     1     2   ar
    16     2     3    1
    17     2     4   ar
    18     4     5   ar
    19     5     6   ar
    20     6     7    2
    21     6     8   ar
    22     8    31    1
    23    31    32   ar
    24    31    33   ar
    25     8     9   ar
    26     9    10   ar
    27    10    34    1
    28    34    35    1
    29    35    36    1
    30    10    11   ar
    31    11    12   ar
    32    12    13    1
    33    17    18    1
    34    29    30   ar
    35    30    26   ar
    36    18    14    1
    37    12     1   ar
    38    11     5   ar
    39    36    34    1
    40    21    22    1
@<TRIPOS>MOLECULE
*****
 36 40 0 0 0
SMALL
GASTEIGER

@<TRIPOS>ATOM
      1 C         139.8634  142.6878  164.1176 C.ar    1  UNL1        0.0878
      2 C         139.2136  143.7888  164.9020 C.ar    1  UNL1        0.1543
      3 F         138.3250  144.7793  164.2098 F       1  UNL1       -0.2028
      4 C         139.4524  143.8993  166.3787 C.ar    1  UNL1        0.0356
      5 C         140.3410  142.9087  167.0710 C.ar    1  UNL1        0.0580
      6 C         140.5798  143.0193  168.5478 C.ar    1  UNL1        0.1996
      7 O         139.9300  144.1203  169.3322 O.2     1  UNL1       -0.2864
      8 C         141.4684  142.0287  169.2400 C.ar    1  UNL1        0.0701
      9 C         142.1182  140.9277  168.4555 C.ar    1  UNL1        0.0801
     10 N         141.8794  140.8172  166.9788 N.ar    1  UNL1       -0.3270
     11 C         140.9908  141.8077  166.2865 C.ar    1  UNL1        0.0750
     12 C         140.7520  141.6972  164.8098 C.ar    1  UNL1        0.0890
     13 CL        141.4019  140.5962  164.0253 Cl      1  UNL1       -0.0794
     14 C         139.8980  142.7745  160.2372 C.3     1  UNL1        0.0929
     15 C         138.6166  142.0399  160.4994 C.3     1  UNL1        0.0427
     16 C         138.4478  141.9181  161.9848 C.3     1  UNL1        0.0927
     17 N         139.6247  142.5772  162.6408 N.pl3   1  UNL1       -0.3033
     18 C         140.5210  143.1065  161.5607 C.3     1  UNL1        0.1104
     19 C         140.3956  144.5291  158.3869 C.2     1  UNL1        0.2246
     20 O         139.7731  145.5991  159.2342 O.2     1  UNL1       -0.2750
     21 N         140.4580  143.1168  158.8884 N.am    1  UNL1       -0.3042
     22 H         140.8665  142.4145  158.3324 H       1  UNL1        0.1494
     23 C         140.9556  144.8714  157.0381 C.3     1  UNL1        0.1133
     24 C         140.0305  145.1562  155.8922 C.3     1  UNL1        0.1608
     25 C         138.2659  150.1309  156.0257 C.3     1  UNL1        0.0776
     26 C         138.9184  148.8606  155.5671 C.ar    1  UNL1        0.1838
     27 N         139.6143  148.6507  154.2550 N.ar    1  UNL1       -0.1123
     28 N         140.1156  147.2374  154.2171 N.ar    1  UNL1       -0.0454
     29 N         139.7295  146.5739  155.5058 N.ar    1  UNL1       -0.1508
     30 N         138.9896  147.5771  156.3401 N.ar    1  UNL1       -0.1342
     31 C         141.7072  142.1392  170.7168 C.2     1  UNL1        0.0774
     32 O         142.7686  143.0621  171.2379 O.co2   1  UNL1       -0.5444
     33 O         140.8844  141.3268  171.6724 O.co2   1  UNL1       -0.5444
     34 C         142.5292  139.7161  166.1943 C.3     1  UNL1        0.0857
     35 C         142.5242  138.3042  165.6880 C.3     1  UNL1        0.0245
     36 C         143.6598  139.2210  165.3419 C.3     1  UNL1        0.0245
@<TRIPOS>UNITY_ATOM_ATTR
32 1
charge -1
@<TRIPOS>BOND
     1    25    26    1
     2    26    27   ar
     3    27    28   ar
     4    28    29   ar
     5    29    24    1
     6    24    23    1
     7    23    19    1
     8    19    20    2
     9    19    21   am
    10    21    14    1
    11    14    15    1
    12    15    16    1
    13    16    17    1
    14    17     1    1
    15     1     2   ar
    16     2     3    1
    17     2     4   ar
    18     4     5   ar
    19     5     6   ar
    20     6     7    2
    21     6     8   ar
    22     8    31    1
    23    31    32   ar
    24    31    33   ar
    25     8     9   ar
    26     9    10   ar
    27    10    34    1
    28    34    35    1
    29    35    36    1
    30    10    11   ar
    31    11    12   ar
    32    12    13    1
    33    17    18    1
    34    29    30   ar
    35    30    26   ar
    36    18    14    1
    37    12     1   ar
    38    11     5   ar
    39    36    34    1
    40    21    22    1
@<TRIPOS>MOLECULE
*****
 36 40 0 0 0
SMALL
GASTEIGER

@<TRIPOS>ATOM
      1 C         140.8669  139.5017  164.3073 C.ar    1  UNL1        0.0878
      2 C         141.6667  138.5772  165.1764 C.ar    1  UNL1        0.1543
      3 F         142.0576  137.2211  164.6685 F       1  UNL1       -0.2028
      4 C         142.0755  139.0088  166.5536 C.ar    1  UNL1        0.0356
      5 C         141.6845  140.3650  167.0615 C.ar    1  UNL1        0.0580
      6 C         142.0934  140.7966  168.4387 C.ar    1  UNL1        0.1996
      7 O         142.8932  139.8721  169.3079 O.2     1  UNL1       -0.2864
      8 C         141.7024  142.1528  168.9466 C.ar    1  UNL1        0.0701
      9 C         140.9026  143.0773  168.0774 C.ar    1  UNL1        0.0801
     10 N         140.4937  142.6457  166.7002 N.ar    1  UNL1       -0.3270
     11 C         140.8847  141.2895  166.1923 C.ar    1  UNL1        0.0750
     12 C         140.4759  140.8579  164.8152 C.ar    1  UNL1        0.0890
     13 CL        139.6760  141.7824  163.9459 Cl      1  UNL1       -0.0794
     14 C         140.4269  138.7560  160.5236 C.3     1  UNL1        0.0929
     15 C         139.2309  138.0561  161.0980 C.3     1  UNL1        0.0427
     16 C         139.2502  138.2503  162.5852 C.3     1  UNL1        0.0927
     17 N         140.4580  139.0701  162.9300 N.pl3   1  UNL1       -0.3033
     18 C         141.1852  139.3827  161.6559 C.3     1  UNL1        0.1104
     19 C         142.0438  138.1360  158.5868 C.2     1  UNL1        0.2246
     20 O         142.9164  137.3916  159.5536 O.2     1  UNL1       -0.2750
     21 N         140.7991  138.8182  159.0719 N.am    1  UNL1       -0.3042
     22 H         140.2264  139.3067  158.4374 H       1  UNL1        0.1494
     23 C         142.4160  138.1983  157.1351 C.3     1  UNL1        0.1133
     24 C         141.9401  137.1329  156.1925 C.3     1  UNL1        0.1608
     25 C         137.8535  137.1965  152.8495 C.3     1  UNL1        0.0776
     26 C         138.6652  137.2123  154.1108 C.ar    1  UNL1        0.1838
     27 N         138.1239  137.3081  155.5064 N.ar    1  UNL1       -0.1123
     28 N         139.2849  137.2900  156.4561 N.ar    1  UNL1       -0.0454
     29 N         140.5436  137.1830  155.6474 N.ar    1  UNL1       -0.1508
     30 N         140.1606  137.1350  154.1979 N.ar    1  UNL1       -0.1342
     31 C         142.1112  142.5844  170.3238 C.2     1  UNL1        0.0774
     32 O         143.3247  143.4462  170.5103 O.co2   1  UNL1       -0.5444
     33 O         141.3066  142.1542  171.5144 O.co2   1  UNL1       -0.5444
     34 C         139.6939  143.5702  165.8311 C.3     1  UNL1        0.0857
     35 C         139.6330  144.7093  164.8570 C.3     1  UNL1        0.0245
     36 C         138.3697  144.0325  165.2996 C.3     1  UNL1        0.0245
@<TRIPOS>UNITY_ATOM_ATTR
32 1
charge -1
@<TRIPOS>BOND
     1    25    26    1
     2    26    27   ar
     3    27    28   ar
     4    28    29   ar
     5    29    24    1
     6    24    23    1
     7    23    19    1
     8    19    20    2
     9    19    21   am
    10    21    14    1
    11    14    15    1
    12    15    16    1
    13    16    17    1
    14    17     1    1
    15     1     2   ar
    16     2     3    1
    17     2     4   ar
    18     4     5   ar
    19     5     6   ar
    20     6     7    2
    21     6     8   ar
    22     8    31    1
    23    31    32   ar
    24    31    33   ar
    25     8     9   ar
    26     9    10   ar
    27    10    34    1
    28    34    35    1
    29    35    36    1
    30    10    11   ar
    31    11    12   ar
    32    12    13    1
    33    17    18    1
    34    29    30   ar
    35    30    26   ar
    36    18    14    1
    37    12     1   ar
    38    11     5   ar
    39    36    34    1
    40    21    22    1
@<TRIPOS>MOLECULE
*****
 36 40 0 0 0
SMALL
GASTEIGER

@<TRIPOS>ATOM
      1 C         140.6662  139.2481  164.3552 C.ar    1  UNL1        0.0878
      2 C         139.6375  138.5291  165.1766 C.ar    1  UNL1        0.1543
      3 F         138.9057  137.3533  164.6005 F       1  UNL1       -0.2028
      4 C         139.3407  138.9858  166.5742 C.ar    1  UNL1        0.0356
      5 C         140.0726  140.1616  167.1503 C.ar    1  UNL1        0.0580
      6 C         139.7757  140.6183  168.5480 C.ar    1  UNL1        0.1996
      7 O         138.7470  139.8993  169.3694 O.2     1  UNL1       -0.2864
      8 C         140.5076  141.7941  169.1241 C.ar    1  UNL1        0.0701
      9 C         141.5363  142.5131  168.3026 C.ar    1  UNL1        0.0801
     10 N         141.8331  142.0564  166.9050 N.ar    1  UNL1       -0.3270
     11 C         141.1012  140.8806  166.3289 C.ar    1  UNL1        0.0750
     12 C         141.3980  140.4239  164.9313 C.ar    1  UNL1        0.0890
     13 CL        142.4267  141.1429  164.1098 Cl      1  UNL1       -0.0794
     14 C         140.8190  138.4620  160.5572 C.3     1  UNL1        0.0929
     15 C         142.0205  137.7153  161.0564 C.3     1  UNL1        0.0427
     16 C         142.1094  137.9189  162.5398 C.3     1  UNL1        0.0927
     17 N         140.9630  138.7914  162.9575 N.pl3   1  UNL1       -0.3033
     18 C         140.1655  139.1270  161.7322 C.3     1  UNL1        0.1104
     19 C         141.0202  139.4684  158.1705 C.2     1  UNL1        0.2246
     20 O         142.1535  140.3362  158.6319 O.2     1  UNL1       -0.2750
     21 N         140.3530  138.5314  159.1332 N.am    1  UNL1       -0.3042
     22 H         139.6092  137.9619  158.8303 H       1  UNL1        0.1494
     23 C         140.5542  139.5378  156.7464 C.3     1  UNL1        0.1133
     24 C         141.3839  138.9288  155.6552 C.3     1  UNL1        0.1608
     25 C         142.5967  133.8548  156.4695 C.3     1  UNL1        0.0776
     26 C         142.7166  135.3391  156.2898 C.ar    1  UNL1        0.1838
     27 N         143.9877  136.1337  156.3423 N.ar    1  UNL1       -0.1123
     28 N         143.6432  137.5752  156.1110 N.ar    1  UNL1       -0.0454
     29 N         142.1592  137.6714  155.9155 N.ar    1  UNL1       -0.1508
     30 N         141.5865  136.2894  156.0260 N.ar    1  UNL1       -0.1342
     31 C         140.2108  142.2508  170.5217 C.2     1  UNL1        0.0774
     32 O         139.5785  143.5910  170.7544 O.co2   1  UNL1       -0.5444
     33 O         140.5462  141.3673  171.6867 O.co2   1  UNL1       -0.5444
     34 C         142.8617  142.7754  166.0836 C.3     1  UNL1        0.0857
     35 C         143.2074  143.7642  165.0099 C.3     1  UNL1        0.0245
     36 C         144.2978  143.0321  165.7345 C.3     1  UNL1        0.0245
@<TRIPOS>UNITY_ATOM_ATTR
32 1
charge -1
@<TRIPOS>BOND
     1    25    26    1
     2    26    27   ar
     3    27    28   ar
     4    28    29   ar
     5    29    24    1
     6    24    23    1
     7    23    19    1
     8    19    20    2
     9    19    21   am
    10    21    14    1
    11    14    15    1
    12    15    16    1
    13    16    17    1
    14    17     1    1
    15     1     2   ar
    16     2     3    1
    17     2     4   ar
    18     4     5   ar
    19     5     6   ar
    20     6     7    2
    21     6     8   ar
    22     8    31    1
    23    31    32   ar
    24    31    33   ar
    25     8     9   ar
    26     9    10   ar
    27    10    34    1
    28    34    35    1
    29    35    36    1
    30    10    11   ar
    31    11    12   ar
    32    12    13    1
    33    17    18    1
    34    29    30   ar
    35    30    26   ar
    36    18    14    1
    37    12     1   ar
    38    11     5   ar
    39    36    34    1
    40    21    22    1
