@<TRIPOS>MOLECULE
*****
 28 31 0 0 0
SMALL
GASTEIGER

@<TRIPOS>ATOM
      1 C         143.9710  142.7930  162.7440 C.2     1  UNL1        0.3564
      2 N         145.4330  142.6504  162.4405 N.2     1  UNL1        0.0803
      3 N         145.9295  141.4108  163.1238 N.2     1  UNL1       -0.0380
      4 C         144.7743  140.7873  163.8497 C.2     1  UNL1        0.1178
      5 C         144.6681  139.5521  164.6940 C.3     1  UNL1        0.0878
      6 C         143.3516  139.1711  165.3036 C.2     1  UNL1        0.0415
      7 CL        143.2455  137.9359  166.1480 Cl      1  UNL1       -0.0865
      8 C         142.1412  140.0254  165.0689 C.2     1  UNL1        0.0072
      9 C         142.2473  141.2607  164.2245 C.2     1  UNL1        0.0093
     10 C         143.5638  141.6416  163.6149 C.2     1  UNL1        0.1025
     11 O         143.0196  142.8139  159.8989 O.2     1  UNL1       -0.2234
     12 C         142.5980  143.9043  160.8388 C.2     1  UNL1        0.3963
     13 N         141.7006  145.0051  160.3560 N.am    1  UNL1       -0.2480
     14 N         143.0736  143.8938  162.2613 N.am    1  UNL1       -0.1510
     15 H         141.4238  145.7207  160.9729 H       1  UNL1        0.1585
     16 H         142.7969  144.6094  162.8782 H       1  UNL1        0.3031
     17 C         141.2249  145.0155  158.9335 C.ar    1  UNL1        0.0535
     18 C         141.9072  145.8867  157.9209 C.ar    1  UNL1        0.0148
     19 C         141.4315  145.8970  156.4984 C.ar    1  UNL1        0.0013
     20 C         140.2735  145.0361  156.0885 C.ar    1  UNL1        0.0001
     21 C         139.5913  144.1649  157.1011 C.ar    1  UNL1        0.0013
     22 C         140.0670  144.1545  158.5236 C.ar    1  UNL1        0.0148
     23 C         140.8246  139.6445  165.6784 C.ar    1  UNL1        0.0005
     24 C         139.8638  138.7849  164.9116 C.ar    1  UNL1        0.0000
     25 C         138.5473  138.4040  165.5212 C.ar    1  UNL1        0.0000
     26 C         138.1915  138.8826  166.8976 C.ar    1  UNL1        0.0000
     27 C         139.1524  139.7421  167.6644 C.ar    1  UNL1        0.0000
     28 C         140.4690  140.1231  167.0548 C.ar    1  UNL1        0.0000
@<TRIPOS>BOND
     1    11    12    2
     2    12    13   am
     3    13    17    1
     4    17    18   ar
     5    18    19   ar
     6    19    20   ar
     7    20    21   ar
     8    21    22   ar
     9    12    14   am
    10    14     1    1
    11     1     2    2
    12     2     3    1
    13     3     4    2
    14     4     5    1
    15     5     6    1
    16     6     7    1
    17     6     8    2
    18     8    23    1
    19    23    24   ar
    20    24    25   ar
    21    25    26   ar
    22    26    27   ar
    23    27    28   ar
    24     8     9    1
    25     9    10    2
    26    22    17   ar
    27    10     1    1
    28    10     4    1
    29    28    23   ar
    30    13    15    1
    31    14    16    1
@<TRIPOS>MOLECULE
*****
 28 31 0 0 0
SMALL
GASTEIGER

@<TRIPOS>ATOM
      1 C         141.9709  144.4412  163.3378 C.2     1  UNL1        0.3564
      2 N         143.2512  145.1843  163.5797 N.2     1  UNL1        0.0803
      3 N         144.0349  144.4327  164.6146 N.2     1  UNL1       -0.0380
      4 C         143.2389  143.2251  165.0122 C.2     1  UNL1        0.1178
      5 C         143.5109  142.1213  165.9908 C.3     1  UNL1        0.0878
      6 C         142.5072  141.0228  166.1804 C.2     1  UNL1        0.0415
      7 CL        142.7791  139.9191  167.1590 Cl      1  UNL1       -0.0865
      8 C         141.2315  141.0281  165.3912 C.2     1  UNL1        0.0072
      9 C         140.9596  142.1319  164.4126 C.2     1  UNL1        0.0093
     10 C         141.9633  143.2304  164.2230 C.2     1  UNL1        0.1025
     11 O         142.4044  144.1550  160.3831 O.2     1  UNL1       -0.2234
     12 C         141.1050  144.6960  160.9015 C.2     1  UNL1        0.3963
     13 N         140.0224  145.0939  159.9425 N.am    1  UNL1       -0.2480
     14 N         140.8882  144.8391  162.3788 N.am    1  UNL1       -0.1510
     15 H         139.1695  145.4490  160.2827 H       1  UNL1        0.1585
     16 H         140.0354  145.1942  162.7191 H       1  UNL1        0.3031
     17 C         140.2392  144.9507  158.4652 C.ar    1  UNL1        0.0535
     18 C         139.6136  143.8074  157.7226 C.ar    1  UNL1        0.0148
     19 C         139.8305  143.6643  156.2453 C.ar    1  UNL1        0.0013
     20 C         140.6730  144.6645  155.5106 C.ar    1  UNL1        0.0001
     21 C         141.2986  145.8079  156.2532 C.ar    1  UNL1        0.0013
     22 C         141.0817  145.9510  157.7305 C.ar    1  UNL1        0.0148
     23 C         140.2278  139.9296  165.5807 C.ar    1  UNL1        0.0005
     24 C         140.2722  138.7136  164.7037 C.ar    1  UNL1        0.0000
     25 C         139.2685  137.6151  164.8932 C.ar    1  UNL1        0.0000
     26 C         138.2204  137.7327  165.9598 C.ar    1  UNL1        0.0000
     27 C         138.1760  138.9487  166.8369 C.ar    1  UNL1        0.0000
     28 C         139.1798  140.0472  166.6473 C.ar    1  UNL1        0.0000
@<TRIPOS>BOND
     1    11    12    2
     2    12    13   am
     3    13    17    1
     4    17    18   ar
     5    18    19   ar
     6    19    20   ar
     7    20    21   ar
     8    21    22   ar
     9    12    14   am
    10    14     1    1
    11     1     2    2
    12     2     3    1
    13     3     4    2
    14     4     5    1
    15     5     6    1
    16     6     7    1
    17     6     8    2
    18     8    23    1
    19    23    24   ar
    20    24    25   ar
    21    25    26   ar
    22    26    27   ar
    23    27    28   ar
    24     8     9    1
    25     9    10    2
    26    22    17   ar
    27    10     1    1
    28    10     4    1
    29    28    23   ar
    30    13    15    1
    31    14    16    1
@<TRIPOS>MOLECULE
*****
 28 31 0 0 0
SMALL
GASTEIGER

@<TRIPOS>ATOM
      1 C         138.6428  142.7818  162.8237 C.2     1  UNL1        0.3564
      2 N         137.6426  141.9086  162.1259 N.2     1  UNL1        0.0803
      3 N         137.3393  140.7442  163.0215 N.2     1  UNL1       -0.0380
      4 C         138.1520  140.8977  164.2728 C.2     1  UNL1        0.1178
      5 C         138.2625  140.0535  165.5078 C.3     1  UNL1        0.0878
      6 C         139.1787  140.4687  166.6206 C.2     1  UNL1        0.0415
      7 CL        139.2892  139.6245  167.8555 Cl      1  UNL1       -0.0865
      8 C         139.9844  141.7280  166.4984 C.2     1  UNL1        0.0072
      9 C         139.8738  142.5722  165.2633 C.2     1  UNL1        0.0093
     10 C         138.9577  142.1571  164.1506 C.2     1  UNL1        0.1025
     11 O         139.4575  142.9649  159.9423 O.2     1  UNL1       -0.2234
     12 C         139.6332  144.1476  160.8480 C.2     1  UNL1        0.3963
     13 N         140.2163  145.4218  160.3128 N.am    1  UNL1       -0.2480
     14 N         139.2259  144.0561  162.2887 N.am    1  UNL1       -0.1510
     15 H         140.3317  146.1981  160.9072 H       1  UNL1        0.1585
     16 H         139.3413  144.8323  162.8831 H       1  UNL1        0.3031
     17 C         140.6236  145.5133  158.8721 C.ar    1  UNL1        0.0535
     18 C         139.7226  146.1857  157.8791 C.ar    1  UNL1        0.0148
     19 C         140.1299  146.2771  156.4384 C.ar    1  UNL1        0.0013
     20 C         141.4383  145.6961  155.9906 C.ar    1  UNL1        0.0001
     21 C         142.3394  145.0237  156.9836 C.ar    1  UNL1        0.0013
     22 C         141.9320  144.9323  158.4243 C.ar    1  UNL1        0.0148
     23 C         140.9006  142.1432  167.6111 C.ar    1  UNL1        0.0005
     24 C         142.3504  141.7606  167.5711 C.ar    1  UNL1        0.0000
     25 C         143.2666  142.1758  168.6839 C.ar    1  UNL1        0.0000
     26 C         142.7329  142.9736  169.8366 C.ar    1  UNL1        0.0000
     27 C         141.2831  143.3562  169.8766 C.ar    1  UNL1        0.0000
     28 C         140.3669  142.9410  168.7638 C.ar    1  UNL1        0.0000
@<TRIPOS>BOND
     1    11    12    2
     2    12    13   am
     3    13    17    1
     4    17    18   ar
     5    18    19   ar
     6    19    20   ar
     7    20    21   ar
     8    21    22   ar
     9    12    14   am
    10    14     1    1
    11     1     2    2
    12     2     3    1
    13     3     4    2
    14     4     5    1
    15     5     6    1
    16     6     7    1
    17     6     8    2
    18     8    23    1
    19    23    24   ar
    20    24    25   ar
    21    25    26   ar
    22    26    27   ar
    23    27    28   ar
    24     8     9    1
    25     9    10    2
    26    22    17   ar
    27    10     1    1
    28    10     4    1
    29    28    23   ar
    30    13    15    1
    31    14    16    1
@<TRIPOS>MOLECULE
*****
 28 31 0 0 0
SMALL
GASTEIGER

@<TRIPOS>ATOM
      1 C         141.9170  144.2335  160.8057 C.2     1  UNL1        0.3564
      2 N         141.3468  145.2600  159.8723 N.2     1  UNL1        0.0803
      3 N         140.0405  145.7288  160.4411 N.2     1  UNL1       -0.0380
      4 C         139.8032  144.9921  161.7260 C.2     1  UNL1        0.1178
      5 C         138.6810  145.0433  162.7199 C.3     1  UNL1        0.0878
      6 C         138.7185  144.1704  163.9392 C.2     1  UNL1        0.0415
      7 CL        137.5962  144.2216  164.9331 Cl      1  UNL1       -0.0865
      8 C         139.8782  143.2462  164.1645 C.2     1  UNL1        0.0072
      9 C         141.0005  143.1949  163.1705 C.2     1  UNL1        0.0093
     10 C         140.9630  144.0679  161.9513 C.2     1  UNL1        0.1025
     11 O         142.7392  143.2889  158.0796 O.2     1  UNL1       -0.2234
     12 C         143.6246  143.0288  159.2621 C.2     1  UNL1        0.3963
     13 N         144.9212  142.2964  159.0814 N.am    1  UNL1       -0.2480
     14 N         143.2135  143.5011  160.6251 N.am    1  UNL1       -0.1510
     15 H         145.5024  142.1256  159.8575 H       1  UNL1        0.1585
     16 H         143.7947  143.3304  161.4012 H       1  UNL1        0.3031
     17 C         145.3322  141.8241  157.7184 C.ar    1  UNL1        0.0535
     18 C         144.6440  140.6470  157.0933 C.ar    1  UNL1        0.0148
     19 C         145.0550  140.1748  155.7302 C.ar    1  UNL1        0.0013
     20 C         146.1543  140.8797  154.9922 C.ar    1  UNL1        0.0001
     21 C         146.8425  142.0568  155.6173 C.ar    1  UNL1        0.0013
     22 C         146.4314  142.5290  156.9803 C.ar    1  UNL1        0.0148
     23 C         139.9158  142.3732  165.3837 C.ar    1  UNL1        0.0005
     24 C         139.3288  140.9936  165.3368 C.ar    1  UNL1        0.0000
     25 C         139.3663  140.1207  166.5560 C.ar    1  UNL1        0.0000
     26 C         139.9909  140.6273  167.8222 C.ar    1  UNL1        0.0000
     27 C         140.5778  142.0069  167.8692 C.ar    1  UNL1        0.0000
     28 C         140.5403  142.8799  166.6499 C.ar    1  UNL1        0.0000
@<TRIPOS>BOND
     1    11    12    2
     2    12    13   am
     3    13    17    1
     4    17    18   ar
     5    18    19   ar
     6    19    20   ar
     7    20    21   ar
     8    21    22   ar
     9    12    14   am
    10    14     1    1
    11     1     2    2
    12     2     3    1
    13     3     4    2
    14     4     5    1
    15     5     6    1
    16     6     7    1
    17     6     8    2
    18     8    23    1
    19    23    24   ar
    20    24    25   ar
    21    25    26   ar
    22    26    27   ar
    23    27    28   ar
    24     8     9    1
    25     9    10    2
    26    22    17   ar
    27    10     1    1
    28    10     4    1
    29    28    23   ar
    30    13    15    1
    31    14    16    1
@<TRIPOS>MOLECULE
*****
 28 31 0 0 0
SMALL
GASTEIGER

@<TRIPOS>ATOM
      1 C         141.6857  139.9876  169.8082 C.2     1  UNL1        0.3564
      2 N         140.2951  139.7338  170.3100 N.2     1  UNL1        0.0803
      3 N         139.3455  139.9376  169.1668 N.2     1  UNL1       -0.0380
      4 C         140.1492  140.3173  167.9586 C.2     1  UNL1        0.1178
      5 C         139.7510  140.6389  166.5487 C.3     1  UNL1        0.0878
      6 C         140.7991  140.9915  165.5351 C.2     1  UNL1        0.0415
      7 CL        140.4008  141.3131  164.1252 Cl      1  UNL1       -0.0865
      8 C         142.2454  141.0225  165.9315 C.2     1  UNL1        0.0072
      9 C         142.6436  140.7008  167.3415 C.2     1  UNL1        0.0093
     10 C         141.5956  140.3483  168.3550 C.2     1  UNL1        0.1025
     11 O         142.7301  137.3080  170.6619 O.2     1  UNL1       -0.2234
     12 C         143.4675  138.5570  171.0444 C.2     1  UNL1        0.3963
     13 N         144.7272  138.4660  171.8538 N.am    1  UNL1       -0.2480
     14 N         142.9453  139.8968  170.6176 N.am    1  UNL1       -0.1510
     15 H         145.2112  139.2857  172.1049 H       1  UNL1        0.1585
     16 H         143.4293  140.7165  170.8687 H       1  UNL1        0.3031
     17 C         145.2493  137.1262  172.2806 C.ar    1  UNL1        0.0535
     18 C         144.7125  135.8761  171.6490 C.ar    1  UNL1        0.0148
     19 C         145.2347  134.5363  172.0758 C.ar    1  UNL1        0.0013
     20 C         146.2937  134.4466  173.1343 C.ar    1  UNL1        0.0001
     21 C         146.8306  135.6967  173.7660 C.ar    1  UNL1        0.0013
     22 C         146.3084  137.0365  173.3391 C.ar    1  UNL1        0.0148
     23 C         143.2935  141.3750  164.9180 C.ar    1  UNL1        0.0005
     24 C         143.5448  142.8117  164.5677 C.ar    1  UNL1        0.0000
     25 C         144.5928  143.1643  163.5542 C.ar    1  UNL1        0.0000
     26 C         145.3897  142.0801  162.8910 C.ar    1  UNL1        0.0000
     27 C         145.1384  140.6434  163.2414 C.ar    1  UNL1        0.0000
     28 C         144.0902  140.2909  164.2549 C.ar    1  UNL1        0.0000
@<TRIPOS>BOND
     1    11    12    2
     2    12    13   am
     3    13    17    1
     4    17    18   ar
     5    18    19   ar
     6    19    20   ar
     7    20    21   ar
     8    21    22   ar
     9    12    14   am
    10    14     1    1
    11     1     2    2
    12     2     3    1
    13     3     4    2
    14     4     5    1
    15     5     6    1
    16     6     7    1
    17     6     8    2
    18     8    23    1
    19    23    24   ar
    20    24    25   ar
    21    25    26   ar
    22    26    27   ar
    23    27    28   ar
    24     8     9    1
    25     9    10    2
    26    22    17   ar
    27    10     1    1
    28    10     4    1
    29    28    23   ar
    30    13    15    1
    31    14    16    1
@<TRIPOS>MOLECULE
*****
 28 31 0 0 0
SMALL
GASTEIGER

@<TRIPOS>ATOM
      1 C         142.5461  138.2764  157.5897 C.2     1  UNL1        0.3564
      2 N         143.6696  139.0012  156.9097 N.2     1  UNL1        0.0803
      3 N         144.3223  139.8968  157.9205 N.2     1  UNL1       -0.0380
      4 C         143.6023  139.7256  159.2252 C.2     1  UNL1        0.1178
      5 C         143.8044  140.3522  160.5729 C.3     1  UNL1        0.0878
      6 C         142.9087  139.9774  161.7163 C.2     1  UNL1        0.0415
      7 CL        143.1108  140.6040  163.0640 Cl      1  UNL1       -0.0865
      8 C         141.8108  138.9759  161.5119 C.2     1  UNL1        0.0072
      9 C         141.6087  138.3492  160.1640 C.2     1  UNL1        0.0093
     10 C         142.5044  138.7241  159.0207 C.2     1  UNL1        0.1025
     11 O         143.6541  135.7418  156.4286 O.2     1  UNL1       -0.2234
     12 C         142.1797  136.0117  156.3703 C.2     1  UNL1        0.3963
     13 N         141.2594  135.0142  155.7314 N.am    1  UNL1       -0.2480
     14 N         141.6257  137.2790  156.9509 N.am    1  UNL1       -0.1510
     15 H         140.2917  135.1913  155.6931 H       1  UNL1        0.1585
     16 H         140.6580  137.4561  156.9126 H       1  UNL1        0.3031
     17 C         141.8135  133.7470  155.1509 C.ar    1  UNL1        0.0535
     18 C         142.2215  132.6229  156.0563 C.ar    1  UNL1        0.0148
     19 C         142.7756  131.3556  155.4757 C.ar    1  UNL1        0.0013
     20 C         142.9216  131.2126  153.9897 C.ar    1  UNL1        0.0001
     21 C         142.5135  132.3367  153.0843 C.ar    1  UNL1        0.0013
     22 C         141.9595  133.6039  153.6649 C.ar    1  UNL1        0.0148
     23 C         140.9152  138.6010  162.6551 C.ar    1  UNL1        0.0005
     24 C         139.6275  139.3392  162.8724 C.ar    1  UNL1        0.0000
     25 C         138.7318  138.9643  164.0157 C.ar    1  UNL1        0.0000
     26 C         139.1237  137.8512  164.9418 C.ar    1  UNL1        0.0000
     27 C         140.4113  137.1131  164.7245 C.ar    1  UNL1        0.0000
     28 C         141.3071  137.4880  163.5812 C.ar    1  UNL1        0.0000
@<TRIPOS>BOND
     1    11    12    2
     2    12    13   am
     3    13    17    1
     4    17    18   ar
     5    18    19   ar
     6    19    20   ar
     7    20    21   ar
     8    21    22   ar
     9    12    14   am
    10    14     1    1
    11     1     2    2
    12     2     3    1
    13     3     4    2
    14     4     5    1
    15     5     6    1
    16     6     7    1
    17     6     8    2
    18     8    23    1
    19    23    24   ar
    20    24    25   ar
    21    25    26   ar
    22    26    27   ar
    23    27    28   ar
    24     8     9    1
    25     9    10    2
    26    22    17   ar
    27    10     1    1
    28    10     4    1
    29    28    23   ar
    30    13    15    1
    31    14    16    1
@<TRIPOS>MOLECULE
*****
 28 31 0 0 0
SMALL
GASTEIGER

@<TRIPOS>ATOM
      1 C         140.8023  138.1949  163.1960 C.2     1  UNL1        0.3564
      2 N         139.5204  137.6186  162.6721 N.2     1  UNL1        0.0803
      3 N         138.4748  137.7701  163.7370 N.2     1  UNL1       -0.0380
      4 C         139.1106  138.4400  164.9190 C.2     1  UNL1        0.1178
      5 C         138.5656  138.8448  166.2565 C.3     1  UNL1        0.0878
      6 C         139.4590  139.5121  167.2597 C.2     1  UNL1        0.0415
      7 CL        138.9140  139.9169  168.5972 Cl      1  UNL1       -0.0865
      8 C         140.8975  139.7747  166.9254 C.2     1  UNL1        0.0072
      9 C         141.4426  139.3698  165.5878 C.2     1  UNL1        0.0093
     10 C         140.5491  138.7025  164.5846 C.2     1  UNL1        0.1025
     11 O         141.1766  140.1568  160.9575 O.2     1  UNL1       -0.2234
     12 C         142.2954  139.2342  161.3412 C.2     1  UNL1        0.3963
     13 N         143.6014  139.2927  160.6055 N.am    1  UNL1       -0.2480
     14 N         142.1083  138.2533  162.4604 N.am    1  UNL1       -0.1510
     15 H         144.3357  138.6873  160.8573 H       1  UNL1        0.1585
     16 H         142.8426  137.6478  162.7122 H       1  UNL1        0.3031
     17 C         143.7884  140.2737  159.4863 C.ar    1  UNL1        0.0535
     18 C         144.1406  141.6998  159.7898 C.ar    1  UNL1        0.0148
     19 C         144.3276  142.6807  158.6705 C.ar    1  UNL1        0.0013
     20 C         144.1625  142.2355  157.2477 C.ar    1  UNL1        0.0001
     21 C         143.8103  140.8094  156.9441 C.ar    1  UNL1        0.0013
     22 C         143.6232  139.8285  158.0634 C.ar    1  UNL1        0.0148
     23 C         141.7910  140.4420  167.9285 C.ar    1  UNL1        0.0005
     24 C         142.1641  139.7271  169.1933 C.ar    1  UNL1        0.0000
     25 C         143.0576  140.3944  170.1964 C.ar    1  UNL1        0.0000
     26 C         143.5779  141.7768  169.9349 C.ar    1  UNL1        0.0000
     27 C         143.2047  142.4918  168.6701 C.ar    1  UNL1        0.0000
     28 C         142.3112  141.8244  167.6669 C.ar    1  UNL1        0.0000
@<TRIPOS>BOND
     1    11    12    2
     2    12    13   am
     3    13    17    1
     4    17    18   ar
     5    18    19   ar
     6    19    20   ar
     7    20    21   ar
     8    21    22   ar
     9    12    14   am
    10    14     1    1
    11     1     2    2
    12     2     3    1
    13     3     4    2
    14     4     5    1
    15     5     6    1
    16     6     7    1
    17     6     8    2
    18     8    23    1
    19    23    24   ar
    20    24    25   ar
    21    25    26   ar
    22    26    27   ar
    23    27    28   ar
    24     8     9    1
    25     9    10    2
    26    22    17   ar
    27    10     1    1
    28    10     4    1
    29    28    23   ar
    30    13    15    1
    31    14    16    1
@<TRIPOS>MOLECULE
*****
 28 31 0 0 0
SMALL
GASTEIGER

@<TRIPOS>ATOM
      1 C         141.5735  138.5544  164.0212 C.2     1  UNL1        0.3564
      2 N         141.2508  137.1455  163.6204 N.2     1  UNL1        0.0803
      3 N         140.3444  137.1993  162.4265 N.2     1  UNL1       -0.0380
      4 C         140.1069  138.6415  162.0893 C.2     1  UNL1        0.1178
      5 C         139.2971  139.3003  161.0122 C.3     1  UNL1        0.0878
      6 C         139.2469  140.7967  160.9207 C.2     1  UNL1        0.0415
      7 CL        138.4371  141.4554  159.8436 Cl      1  UNL1       -0.0865
      8 C         140.0066  141.6342  161.9063 C.2     1  UNL1        0.0072
      9 C         140.8164  140.9754  162.9834 C.2     1  UNL1        0.0093
     10 C         140.8665  139.4790  163.0749 C.2     1  UNL1        0.1025
     11 O         140.3734  139.9037  166.4169 O.2     1  UNL1       -0.2234
     12 C         141.8494  139.6411  166.3649 C.2     1  UNL1        0.3963
     13 N         142.7252  140.0533  167.5108 N.am    1  UNL1       -0.2480
     14 N         142.4494  138.9665  165.1670 N.am    1  UNL1       -0.1510
     15 H         143.6939  139.8810  167.4767 H       1  UNL1        0.1585
     16 H         143.4181  138.7942  165.1329 H       1  UNL1        0.3031
     17 C         142.1251  140.7279  168.7086 C.ar    1  UNL1        0.0535
     18 C         142.1801  142.2216  168.8342 C.ar    1  UNL1        0.0148
     19 C         141.5800  142.8961  170.0320 C.ar    1  UNL1        0.0013
     20 C         140.9248  142.0769  171.1043 C.ar    1  UNL1        0.0001
     21 C         140.8698  140.5832  170.9787 C.ar    1  UNL1        0.0013
     22 C         141.4700  139.9087  169.7809 C.ar    1  UNL1        0.0148
     23 C         139.9564  143.1306  161.8148 C.ar    1  UNL1        0.0005
     24 C         139.0478  143.9074  162.7209 C.ar    1  UNL1        0.0000
     25 C         138.9977  145.4037  162.6294 C.ar    1  UNL1        0.0000
     26 C         139.8562  146.1233  161.6318 C.ar    1  UNL1        0.0000
     27 C         140.7648  145.3465  160.7257 C.ar    1  UNL1        0.0000
     28 C         140.8149  143.8501  160.8172 C.ar    1  UNL1        0.0000
@<TRIPOS>BOND
     1    11    12    2
     2    12    13   am
     3    13    17    1
     4    17    18   ar
     5    18    19   ar
     6    19    20   ar
     7    20    21   ar
     8    21    22   ar
     9    12    14   am
    10    14     1    1
    11     1     2    2
    12     2     3    1
    13     3     4    2
    14     4     5    1
    15     5     6    1
    16     6     7    1
    17     6     8    2
    18     8    23    1
    19    23    24   ar
    20    24    25   ar
    21    25    26   ar
    22    26    27   ar
    23    27    28   ar
    24     8     9    1
    25     9    10    2
    26    22    17   ar
    27    10     1    1
    28    10     4    1
    29    28    23   ar
    30    13    15    1
    31    14    16    1
@<TRIPOS>MOLECULE
*****
 28 31 0 0 0
SMALL
GASTEIGER

@<TRIPOS>ATOM
      1 C         141.8276  143.8379  160.7854 C.2     1  UNL1        0.3564
      2 N         141.5404  145.1244  160.0696 N.2     1  UNL1        0.0803
      3 N         140.3783  145.7844  160.7508 N.2     1  UNL1       -0.0380
      4 C         139.9474  144.9058  161.8876 C.2     1  UNL1        0.1178
      5 C         138.8550  145.0458  162.9060 C.3     1  UNL1        0.0878
      6 C         138.6584  143.9827  163.9459 C.2     1  UNL1        0.0415
      7 CL        137.5661  144.1227  164.9643 Cl      1  UNL1       -0.0865
      8 C         139.5541  142.7797  163.9673 C.2     1  UNL1        0.0072
      9 C         140.6465  142.6397  162.9488 C.2     1  UNL1        0.0093
     10 C         140.8431  143.7028  161.9090 C.2     1  UNL1        0.1025
     11 O         141.2721  141.6115  158.8530 O.2     1  UNL1       -0.2234
     12 C         142.6316  141.7452  159.4723 C.2     1  UNL1        0.3963
     13 N         143.7134  140.7657  159.1254 N.am    1  UNL1       -0.2480
     14 N         142.9094  142.8584  160.4385 N.am    1  UNL1       -0.1510
     15 H         144.6058  140.8534  159.5319 H       1  UNL1        0.1585
     16 H         143.8018  142.9462  160.8450 H       1  UNL1        0.3031
     17 C         143.4356  139.6525  158.1592 C.ar    1  UNL1        0.0535
     18 C         143.7431  139.8300  156.7018 C.ar    1  UNL1        0.0148
     19 C         143.4652  138.7168  155.7357 C.ar    1  UNL1        0.0013
     20 C         142.8798  137.4261  156.2269 C.ar    1  UNL1        0.0001
     21 C         142.5723  137.2486  157.6843 C.ar    1  UNL1        0.0013
     22 C         142.8502  138.3618  158.6504 C.ar    1  UNL1        0.0148
     23 C         139.3575  141.7166  165.0071 C.ar    1  UNL1        0.0005
     24 C         138.3906  140.5966  164.7611 C.ar    1  UNL1        0.0000
     25 C         138.1940  139.5335  165.8009 C.ar    1  UNL1        0.0000
     26 C         138.9643  139.5905  167.0868 C.ar    1  UNL1        0.0000
     27 C         139.9313  140.7106  167.3328 C.ar    1  UNL1        0.0000
     28 C         140.1278  141.7737  166.2929 C.ar    1  UNL1        0.0000
@<TRIPOS>BOND
     1    11    12    2
     2    12    13   am
     3    13    17    1
     4    17    18   ar
     5    18    19   ar
     6    19    20   ar
     7    20    21   ar
     8    21    22   ar
     9    12    14   am
    10    14     1    1
    11     1     2    2
    12     2     3    1
    13     3     4    2
    14     4     5    1
    15     5     6    1
    16     6     7    1
    17     6     8    2
    18     8    23    1
    19    23    24   ar
    20    24    25   ar
    21    25    26   ar
    22    26    27   ar
    23    27    28   ar
    24     8     9    1
    25     9    10    2
    26    22    17   ar
    27    10     1    1
    28    10     4    1
    29    28    23   ar
    30    13    15    1
    31    14    16    1
