@<TRIPOS>MOLECULE
*****
 44 48 0 0 0
SMALL
GASTEIGER

@<TRIPOS>ATOM
      1 C         140.1014  137.8822  164.1968 C.3     1  UNL1        0.0546
      2 C         138.8217  137.9210  164.9783 C.3     1  UNL1        0.0180
      3 C         139.0780  138.6735  166.2503 C.3     1  UNL1        0.0311
      4 C         138.4455  139.1626  167.5195 C.3     1  UNL1        0.0973
      5 N         139.4927  139.8911  168.3085 N.am    1  UNL1       -0.2455
      6 C         139.2949  140.5438  169.6446 C.2     1  UNL1        0.4049
      7 O         140.4415  141.2393  170.3166 O.2     1  UNL1       -0.2262
      8 C         140.7725  139.8523  167.5270 C.3     1  UNL1        0.1053
      9 C         140.5162  139.0998  166.2550 C.3     1  UNL1        0.0903
     10 C         141.1486  138.6107  164.9859 C.3     1  UNL1        0.0261
     11 C         141.9543  139.5260  166.2596 C.2     1  UNL1        0.2267
     12 O         142.9807  138.6945  166.9703 O.2     1  UNL1       -0.2748
     13 N         142.3661  140.7838  165.5536 N.am    1  UNL1       -0.2750
     14 C         143.8042  141.2101  165.5582 C.3     1  UNL1        0.1000
     15 C         144.2159  142.4678  164.8522 C.3     1  UNL1        0.0670
     16 C         143.1895  143.2993  164.1415 C.ar    1  UNL1        0.0583
     17 N         143.6012  144.5571  163.4355 N.ar    1  UNL1       -0.2484
     18 C         142.5748  145.3887  162.7248 C.ar    1  UNL1        0.1023
     19 C         141.1366  144.9624  162.7202 C.ar    1  UNL1        0.0902
     20 C         140.7249  143.7046  163.4262 C.ar    1  UNL1        0.0040
     21 C         141.7513  142.8731  164.1369 C.ar    1  UNL1        0.0113
     22 C         141.3396  141.6153  164.8429 C.3     1  UNL1        0.1213
     23 C         140.1102  145.7939  162.0095 C.3     1  UNL1        0.4200
     24 F         139.0838  146.6254  161.2989 F       1  UNL1       -0.1658
     25 F         140.9933  145.8488  160.7983 F       1  UNL1       -0.1658
     26 F         139.2271  145.7390  163.2208 F       1  UNL1       -0.1658
     27 N         140.2992  137.2295  162.8608 N.3     1  UNL1       -0.2975
     28 H         141.1893  136.7333  162.9044 H       1  UNL1        0.1232
     29 C         141.6407  138.3969  160.9667 C.3     1  UNL1        0.1591
     30 C         141.6710  139.2321  159.7211 C.3     1  UNL1        0.1729
     31 O         140.3903  139.7351  159.1240 O.3     1  UNL1       -0.3511
     32 C         139.0791  139.4029  159.7724 C.3     1  UNL1        0.1437
     33 C         139.0487  138.5677  161.0180 C.3     1  UNL1        0.0503
     34 C         140.3296  138.0647  161.6152 C.3     1  UNL1        0.0865
     35 C         143.7559  138.7993  162.4208 C.3     1  UNL1        0.1742
     36 O         142.9214  137.8940  161.5639 O.3     1  UNL1       -0.3496
     37 O         137.9506  140.5010  170.3085 O.3     1  UNL1       -0.4327
     38 C         137.5155  139.2672  171.0423 C.3     1  UNL1        0.2313
     39 C         136.0671  138.8774  171.0612 C.3     1  UNL1        0.1373
     40 N         135.4502  138.3444  172.3202 N.am    1  UNL1       -0.3010
     41 C         135.8591  136.9999  172.8448 C.2     1  UNL1        0.2231
     42 C         135.2423  136.4668  174.1039 C.3     1  UNL1        0.0946
     43 O         136.8848  136.1885  172.1103 O.2     1  UNL1       -0.2751
     44 H         134.7770  138.8769  172.8023 H       1  UNL1        0.1495
@<TRIPOS>BOND
     1    35    36    1
     2    36    29    1
     3    29    30    1
     4    30    31    1
     5    31    32    1
     6    32    33    1
     7    33    34    1
     8    34    27    1
     9     1    27    1
    10     1     2    1
    11     3     2    1
    12     3     4    1
    13     4     5    1
    14     5     6   am
    15     6     7    2
    16     6    37    1
    17    37    38    1
    18    38    39    1
    19    39    40    1
    20    40    41   am
    21    41    42    1
    22    41    43    2
    23     5     8    1
    24     8     9    1
    25     9    11    1
    26    11    12    2
    27    11    13   am
    28    13    14    1
    29    14    15    1
    30    15    16    1
    31    16    17   ar
    32    17    18   ar
    33    18    19   ar
    34    19    23    1
    35    23    24    1
    36    23    25    1
    37    23    26    1
    38    19    20   ar
    39    20    21   ar
    40    21    22    1
    41     9    10    1
    42    34    29    1
    43    10     1    1
    44     9     3    1
    45    22    13    1
    46    21    16   ar
    47    27    28    1
    48    40    44    1
@<TRIPOS>MOLECULE
*****
 44 48 0 0 0
SMALL
GASTEIGER

@<TRIPOS>ATOM
      1 C         138.6220  141.8595  159.8990 C.3     1  UNL1        0.0546
      2 C         138.1733  140.4880  159.4897 C.3     1  UNL1        0.0180
      3 C         139.3141  139.8191  158.7818 C.3     1  UNL1        0.0311
      4 C         139.7419  138.5580  158.0913 C.3     1  UNL1        0.0973
      5 N         141.1600  138.7368  157.6364 N.am    1  UNL1       -0.2455
      6 C         141.9847  137.7221  156.9013 C.2     1  UNL1        0.4049
      7 O         143.3962  138.0445  156.5093 O.2     1  UNL1       -0.2262
      8 C         141.6087  140.1083  158.0458 C.3     1  UNL1        0.1053
      9 C         140.4679  140.7772  158.7537 C.3     1  UNL1        0.0903
     10 C         140.0401  142.0382  159.4442 C.3     1  UNL1        0.0261
     11 C         141.6217  141.7353  158.7256 C.2     1  UNL1        0.2267
     12 O         141.7537  142.7175  157.5995 O.2     1  UNL1       -0.2748
     13 N         142.6434  141.7113  159.8235 N.am    1  UNL1       -0.2750
     14 C         143.7972  142.6695  159.7954 C.3     1  UNL1        0.1000
     15 C         144.8189  142.6454  160.8933 C.3     1  UNL1        0.0670
     16 C         144.6869  141.6633  162.0194 C.ar    1  UNL1        0.0583
     17 N         145.7086  141.6393  163.1173 N.ar    1  UNL1       -0.2484
     18 C         145.5766  140.6572  164.2434 C.ar    1  UNL1        0.1023
     19 C         144.4228  139.6990  164.2714 C.ar    1  UNL1        0.0902
     20 C         143.4011  139.7230  163.1735 C.ar    1  UNL1        0.0040
     21 C         143.5331  140.7052  162.0475 C.ar    1  UNL1        0.0113
     22 C         142.5114  140.7292  160.9496 C.3     1  UNL1        0.1213
     23 C         144.2908  138.7169  165.3975 C.3     1  UNL1        0.4200
     24 F         144.1587  137.7347  166.5235 F       1  UNL1       -0.1658
     25 F         145.7836  138.5828  165.4556 F       1  UNL1       -0.1658
     26 F         142.7979  138.8509  165.3394 F       1  UNL1       -0.1658
     27 N         137.7973  142.8741  160.6342 N.3     1  UNL1       -0.2975
     28 H         137.9272  143.7639  160.1527 H       1  UNL1        0.1232
     29 C         138.6883  144.4130  162.5284 C.3     1  UNL1        0.1591
     30 C         138.9374  144.6686  163.9853 C.3     1  UNL1        0.1729
     31 O         138.5447  143.6409  165.0050 O.3     1  UNL1       -0.3511
     32 C         137.9028  142.3576  164.5677 C.3     1  UNL1        0.1437
     33 C         137.6536  142.1020  163.1108 C.3     1  UNL1        0.0503
     34 C         138.0464  143.1297  162.0911 C.3     1  UNL1        0.0865
     35 C         140.4640  145.4306  160.9280 C.3     1  UNL1        0.1742
     36 O         139.0810  145.4406  161.5088 O.3     1  UNL1       -0.3496
     37 O         141.3978  136.3851  156.5581 O.3     1  UNL1       -0.4327
     38 C         142.2910  135.2671  156.1082 C.3     1  UNL1        0.2313
     39 C         143.3233  134.7094  157.0429 C.3     1  UNL1        0.1373
     40 N         144.3138  133.6972  156.5487 N.am    1  UNL1       -0.3010
     41 C         143.9656  132.2383  156.5628 C.2     1  UNL1        0.2231
     42 C         144.9561  131.2259  156.0686 C.3     1  UNL1        0.0946
     43 O         142.6269  131.7916  157.0712 O.2     1  UNL1       -0.2751
     44 H         145.1924  133.9904  156.2150 H       1  UNL1        0.1495
@<TRIPOS>BOND
     1    35    36    1
     2    36    29    1
     3    29    30    1
     4    30    31    1
     5    31    32    1
     6    32    33    1
     7    33    34    1
     8    34    27    1
     9     1    27    1
    10     1     2    1
    11     3     2    1
    12     3     4    1
    13     4     5    1
    14     5     6   am
    15     6     7    2
    16     6    37    1
    17    37    38    1
    18    38    39    1
    19    39    40    1
    20    40    41   am
    21    41    42    1
    22    41    43    2
    23     5     8    1
    24     8     9    1
    25     9    11    1
    26    11    12    2
    27    11    13   am
    28    13    14    1
    29    14    15    1
    30    15    16    1
    31    16    17   ar
    32    17    18   ar
    33    18    19   ar
    34    19    23    1
    35    23    24    1
    36    23    25    1
    37    23    26    1
    38    19    20   ar
    39    20    21   ar
    40    21    22    1
    41     9    10    1
    42    34    29    1
    43    10     1    1
    44     9     3    1
    45    22    13    1
    46    21    16   ar
    47    27    28    1
    48    40    44    1
@<TRIPOS>MOLECULE
*****
 44 48 0 0 0
SMALL
GASTEIGER

@<TRIPOS>ATOM
      1 C         141.6095  143.9544  160.4337 C.3     1  UNL1        0.0546
      2 C         140.2940  144.4534  159.9138 C.3     1  UNL1        0.0180
      3 C         139.6687  143.3556  159.1051 C.3     1  UNL1        0.0311
      4 C         138.4693  142.9855  158.2839 C.3     1  UNL1        0.0973
      5 N         138.6570  141.5794  157.7966 N.am    1  UNL1       -0.2455
      6 C         137.6976  140.8077  156.9397 C.2     1  UNL1        0.4049
      7 O         138.0226  139.4022  156.5287 O.2     1  UNL1       -0.2262
      8 C         139.9726  141.0804  158.3165 C.3     1  UNL1        0.1053
      9 C         140.5978  142.1781  159.1252 C.3     1  UNL1        0.0903
     10 C         141.7973  142.5482  159.9464 C.3     1  UNL1        0.0261
     11 C         141.5269  141.0008  159.1454 C.2     1  UNL1        0.2267
     12 O         142.5284  140.8167  158.0440 O.2     1  UNL1       -0.2748
     13 N         141.4546  140.0074  160.2670 N.am    1  UNL1       -0.2750
     14 C         142.3837  138.8300  160.2872 C.3     1  UNL1        0.1000
     15 C         142.3113  137.8366  161.4088 C.3     1  UNL1        0.0670
     16 C         141.3099  138.0207  162.5102 C.ar    1  UNL1        0.0583
     17 N         141.2375  137.0273  163.6319 N.ar    1  UNL1       -0.2484
     18 C         140.2360  137.2114  164.7333 C.ar    1  UNL1        0.1023
     19 C         139.3069  138.3889  164.7131 C.ar    1  UNL1        0.0902
     20 C         139.3793  139.3822  163.5915 C.ar    1  UNL1        0.0040
     21 C         140.3808  139.1981  162.4901 C.ar    1  UNL1        0.0113
     22 C         140.4531  140.1914  161.3685 C.3     1  UNL1        0.1213
     23 C         138.3054  138.5730  165.8145 C.3     1  UNL1        0.4200
     24 F         137.3039  138.7571  166.9160 F       1  UNL1       -0.1658
     25 F         138.4081  140.0614  165.6592 F       1  UNL1       -0.1658
     26 F         138.2027  137.0846  165.9699 F       1  UNL1       -0.1658
     27 N         142.5689  144.7261  161.2906 N.3     1  UNL1       -0.2975
     28 H         143.2896  145.0929  160.6689 H       1  UNL1        0.1232
     29 C         142.7840  144.2117  163.8281 C.3     1  UNL1        0.1591
     30 C         143.4944  143.5299  164.9597 C.3     1  UNL1        0.1729
     31 O         144.7000  142.6806  164.6854 O.3     1  UNL1       -0.3511
     32 C         145.1952  142.5131  163.2794 C.3     1  UNL1        0.1437
     33 C         144.4849  143.1950  162.1478 C.3     1  UNL1        0.0503
     34 C         143.2793  144.0443  162.4222 C.3     1  UNL1        0.0865
     35 C         140.2084  144.4511  164.0706 C.3     1  UNL1        0.1742
     36 O         141.5785  145.0610  164.1024 O.3     1  UNL1       -0.3496
     37 O         136.4134  141.4415  156.4939 O.3     1  UNL1       -0.4327
     38 C         135.8262  141.0880  155.1596 C.3     1  UNL1        0.2313
     39 C         134.9432  139.8830  155.0243 C.3     1  UNL1        0.1373
     40 N         133.4954  139.9673  155.4073 N.am    1  UNL1       -0.3010
     41 C         133.0814  139.7366  156.8304 C.2     1  UNL1        0.2231
     42 C         131.6335  139.8209  157.2134 C.3     1  UNL1        0.0946
     43 O         134.1152  139.4216  157.8706 O.2     1  UNL1       -0.2751
     44 H         132.8168  140.1741  154.7246 H       1  UNL1        0.1495
@<TRIPOS>BOND
     1    35    36    1
     2    36    29    1
     3    29    30    1
     4    30    31    1
     5    31    32    1
     6    32    33    1
     7    33    34    1
     8    34    27    1
     9     1    27    1
    10     1     2    1
    11     3     2    1
    12     3     4    1
    13     4     5    1
    14     5     6   am
    15     6     7    2
    16     6    37    1
    17    37    38    1
    18    38    39    1
    19    39    40    1
    20    40    41   am
    21    41    42    1
    22    41    43    2
    23     5     8    1
    24     8     9    1
    25     9    11    1
    26    11    12    2
    27    11    13   am
    28    13    14    1
    29    14    15    1
    30    15    16    1
    31    16    17   ar
    32    17    18   ar
    33    18    19   ar
    34    19    23    1
    35    23    24    1
    36    23    25    1
    37    23    26    1
    38    19    20   ar
    39    20    21   ar
    40    21    22    1
    41     9    10    1
    42    34    29    1
    43    10     1    1
    44     9     3    1
    45    22    13    1
    46    21    16   ar
    47    27    28    1
    48    40    44    1
@<TRIPOS>MOLECULE
*****
 44 48 0 0 0
SMALL
GASTEIGER

@<TRIPOS>ATOM
      1 C         138.5803  141.8062  159.9753 C.3     1  UNL1        0.0546
      2 C         138.0555  140.8563  158.9399 C.3     1  UNL1        0.0180
      3 C         139.1736  139.9380  158.5442 C.3     1  UNL1        0.0311
      4 C         139.5403  138.7834  157.6597 C.3     1  UNL1        0.0973
      5 N         140.9827  138.4522  157.9039 N.am    1  UNL1       -0.2455
      6 C         141.7633  137.3624  157.2307 C.2     1  UNL1        0.4049
      7 O         143.2066  137.1487  157.5791 O.2     1  UNL1       -0.2262
      8 C         141.5076  139.4022  158.9393 C.3     1  UNL1        0.1053
      9 C         140.3895  140.3204  159.3350 C.3     1  UNL1        0.0903
     10 C         140.0228  141.4751  160.2195 C.3     1  UNL1        0.0261
     11 C         141.6053  140.7029  160.1259 C.2     1  UNL1        0.2267
     12 O         142.7968  141.2928  159.4313 O.2     1  UNL1       -0.2748
     13 N         141.6297  140.4955  161.6113 N.am    1  UNL1       -0.2750
     14 C         142.8455  140.8779  162.4021 C.3     1  UNL1        0.1000
     15 C         142.8698  140.6705  163.8875 C.3     1  UNL1        0.0670
     16 C         141.6783  140.0806  164.5820 C.ar    1  UNL1        0.0583
     17 N         141.7027  139.8732  166.0675 N.ar    1  UNL1       -0.2484
     18 C         140.5112  139.2833  166.7620 C.ar    1  UNL1        0.1023
     19 C         139.2953  138.9008  165.9711 C.ar    1  UNL1        0.0902
     20 C         139.2710  139.1083  164.4857 C.ar    1  UNL1        0.0040
     21 C         140.4625  139.6981  163.7912 C.ar    1  UNL1        0.0113
     22 C         140.4382  139.9056  162.3058 C.3     1  UNL1        0.1213
     23 C         138.1038  138.3109  166.6656 C.3     1  UNL1        0.4200
     24 F         136.9123  137.7211  167.3601 F       1  UNL1       -0.1658
     25 F         138.0227  139.5183  167.5520 F       1  UNL1       -0.1658
     26 F         138.1849  137.1036  165.7792 F       1  UNL1       -0.1658
     27 N         137.7997  142.8961  160.6485 N.3     1  UNL1       -0.2975
     28 H         137.9760  143.7522  160.1228 H       1  UNL1        0.1232
     29 C         138.7998  144.4591  162.4669 C.3     1  UNL1        0.1591
     30 C         139.0496  144.7784  163.9110 C.3     1  UNL1        0.1729
     31 O         138.5493  143.8538  164.9810 O.3     1  UNL1       -0.3511
     32 C         137.7990  142.6100  164.6068 C.3     1  UNL1        0.1437
     33 C         137.5492  142.2907  163.1626 C.3     1  UNL1        0.0503
     34 C         138.0496  143.2153  162.0926 C.3     1  UNL1        0.0865
     35 C         140.7102  145.2622  160.8999 C.3     1  UNL1        0.1742
     36 O         139.3001  145.3837  161.3969 O.3     1  UNL1       -0.3496
     37 O         141.1007  136.4863  156.2093 O.3     1  UNL1       -0.4327
     38 C         141.9311  135.7532  155.1980 C.3     1  UNL1        0.2313
     39 C         142.4298  134.3705  155.4973 C.3     1  UNL1        0.1373
     40 N         143.2806  134.1258  156.7082 N.am    1  UNL1       -0.3010
     41 C         144.1729  132.9216  156.7669 C.2     1  UNL1        0.2231
     42 C         145.0238  132.6769  157.9778 C.3     1  UNL1        0.0946
     43 O         144.2144  131.9619  155.6148 O.2     1  UNL1       -0.2751
     44 H         143.2534  134.7557  157.4644 H       1  UNL1        0.1495
@<TRIPOS>BOND
     1    35    36    1
     2    36    29    1
     3    29    30    1
     4    30    31    1
     5    31    32    1
     6    32    33    1
     7    33    34    1
     8    34    27    1
     9     1    27    1
    10     1     2    1
    11     3     2    1
    12     3     4    1
    13     4     5    1
    14     5     6   am
    15     6     7    2
    16     6    37    1
    17    37    38    1
    18    38    39    1
    19    39    40    1
    20    40    41   am
    21    41    42    1
    22    41    43    2
    23     5     8    1
    24     8     9    1
    25     9    11    1
    26    11    12    2
    27    11    13   am
    28    13    14    1
    29    14    15    1
    30    15    16    1
    31    16    17   ar
    32    17    18   ar
    33    18    19   ar
    34    19    23    1
    35    23    24    1
    36    23    25    1
    37    23    26    1
    38    19    20   ar
    39    20    21   ar
    40    21    22    1
    41     9    10    1
    42    34    29    1
    43    10     1    1
    44     9     3    1
    45    22    13    1
    46    21    16   ar
    47    27    28    1
    48    40    44    1
@<TRIPOS>MOLECULE
*****
 44 48 0 0 0
SMALL
GASTEIGER

@<TRIPOS>ATOM
      1 C         142.3858  138.4402  158.3200 C.3     1  UNL1        0.0546
      2 C         142.6590  139.8681  157.9507 C.3     1  UNL1        0.0180
      3 C         141.6460  140.7286  158.6458 C.3     1  UNL1        0.0311
      4 C         141.1887  142.1430  158.8472 C.3     1  UNL1        0.0973
      5 N         140.0068  142.1210  159.7706 N.am    1  UNL1       -0.2455
      6 C         139.2338  143.3171  160.2419 C.2     1  UNL1        0.4049
      7 O         138.0685  143.1391  161.1694 O.2     1  UNL1       -0.2262
      8 C         139.7336  140.6931  160.1399 C.3     1  UNL1        0.1053
      9 C         140.7466  139.8326  159.4448 C.3     1  UNL1        0.0903
     10 C         141.2039  138.4182  159.2434 C.3     1  UNL1        0.0261
     11 C         139.8473  138.9365  160.2437 C.2     1  UNL1        0.2267
     12 O         138.8943  138.0135  159.5439 O.2     1  UNL1       -0.2748
     13 N         139.9010  138.9634  161.7426 N.am    1  UNL1       -0.2750
     14 C         139.0018  138.0674  162.5415 C.3     1  UNL1        0.1000
     15 C         139.0555  138.0943  164.0402 C.3     1  UNL1        0.0670
     16 C         140.0085  139.0173  164.7401 C.ar    1  UNL1        0.0583
     17 N         140.0623  139.0442  166.2389 N.ar    1  UNL1       -0.2484
     18 C         141.0153  139.9673  166.9388 C.ar    1  UNL1        0.1023
     19 C         141.9146  140.8633  166.1398 C.ar    1  UNL1        0.0902
     20 C         141.8609  140.8364  164.6410 C.ar    1  UNL1        0.0040
     21 C         140.9078  139.9134  163.9412 C.ar    1  UNL1        0.0113
     22 C         140.8541  139.8864  162.4424 C.3     1  UNL1        0.1213
     23 C         142.8677  141.7863  166.8396 C.3     1  UNL1        0.4200
     24 F         143.8207  142.7094  167.5395 F       1  UNL1       -0.1658
     25 F         142.9051  140.8560  168.0156 F       1  UNL1       -0.1658
     26 F         142.8302  142.7167  165.6636 F       1  UNL1       -0.1658
     27 N         143.1588  137.2441  157.8487 N.3     1  UNL1       -0.2975
     28 H         144.0265  137.5952  157.4437 H       1  UNL1        0.1232
     29 C         142.8071  134.8361  156.9390 C.3     1  UNL1        0.1591
     30 C         142.2047  133.9036  155.9303 C.3     1  UNL1        0.1729
     31 O         141.3513  134.4466  154.8226 O.3     1  UNL1       -0.3511
     32 C         141.1004  135.9222  154.7237 C.3     1  UNL1        0.1437
     33 C         141.7029  136.8547  155.7324 C.3     1  UNL1        0.0503
     34 C         142.5563  136.3116  156.8400 C.3     1  UNL1        0.0865
     35 C         144.5177  133.0851  157.8096 C.3     1  UNL1        0.1742
     36 O         143.6605  134.2931  158.0466 O.3     1  UNL1       -0.3496
     37 O         139.6262  144.6910  159.7856 O.3     1  UNL1       -0.4327
     38 C         140.4843  145.5554  160.6611 C.3     1  UNL1        0.2313
     39 C         139.8928  146.2219  161.8678 C.3     1  UNL1        0.1373
     40 N         139.3371  145.3913  162.9864 N.am    1  UNL1       -0.3010
     41 C         140.2541  144.8369  164.0360 C.2     1  UNL1        0.2231
     42 C         139.6984  144.0063  165.1547 C.3     1  UNL1        0.0946
     43 O         141.7269  145.1132  163.9671 O.2     1  UNL1       -0.2751
     44 H         138.3705  145.2100  163.0317 H       1  UNL1        0.1495
@<TRIPOS>BOND
     1    35    36    1
     2    36    29    1
     3    29    30    1
     4    30    31    1
     5    31    32    1
     6    32    33    1
     7    33    34    1
     8    34    27    1
     9     1    27    1
    10     1     2    1
    11     3     2    1
    12     3     4    1
    13     4     5    1
    14     5     6   am
    15     6     7    2
    16     6    37    1
    17    37    38    1
    18    38    39    1
    19    39    40    1
    20    40    41   am
    21    41    42    1
    22    41    43    2
    23     5     8    1
    24     8     9    1
    25     9    11    1
    26    11    12    2
    27    11    13   am
    28    13    14    1
    29    14    15    1
    30    15    16    1
    31    16    17   ar
    32    17    18   ar
    33    18    19   ar
    34    19    23    1
    35    23    24    1
    36    23    25    1
    37    23    26    1
    38    19    20   ar
    39    20    21   ar
    40    21    22    1
    41     9    10    1
    42    34    29    1
    43    10     1    1
    44     9     3    1
    45    22    13    1
    46    21    16   ar
    47    27    28    1
    48    40    44    1
@<TRIPOS>MOLECULE
*****
 44 48 0 0 0
SMALL
GASTEIGER

@<TRIPOS>ATOM
      1 C         138.0368  140.6733  156.8252 C.3     1  UNL1        0.0546
      2 C         137.7202  142.0744  157.2572 C.3     1  UNL1        0.0180
      3 C         138.8762  142.5820  158.0672 C.3     1  UNL1        0.0311
      4 C         139.3950  143.7616  158.8349 C.3     1  UNL1        0.0973
      5 N         140.7466  143.4033  159.3779 N.am    1  UNL1       -0.2455
      6 C         141.6270  144.2904  160.2073 C.2     1  UNL1        0.4049
      7 O         142.9601  143.7923  160.6814 O.2     1  UNL1       -0.2262
      8 C         141.0631  142.0022  158.9458 C.3     1  UNL1        0.1053
      9 C         139.9072  141.4946  158.1358 C.3     1  UNL1        0.0903
     10 C         139.3884  140.3150  157.3681 C.3     1  UNL1        0.0261
     11 C         140.9381  140.4072  158.2043 C.2     1  UNL1        0.2267
     12 O         141.8660  140.1795  157.0480 O.2     1  UNL1       -0.2748
     13 N         141.0412  139.5476  159.4293 N.am    1  UNL1       -0.2750
     14 C         142.0722  138.4602  159.4978 C.3     1  UNL1        0.1000
     15 C         142.1752  137.6006  160.7227 C.3     1  UNL1        0.0670
     16 C         141.2473  137.8283  161.8790 C.ar    1  UNL1        0.0583
     17 N         141.3504  136.9686  163.1040 N.ar    1  UNL1       -0.2484
     18 C         140.4226  137.1964  164.2603 C.ar    1  UNL1        0.1023
     19 C         139.3916  138.2838  164.1917 C.ar    1  UNL1        0.0902
     20 C         139.2885  139.1435  162.9669 C.ar    1  UNL1        0.0040
     21 C         140.2164  138.9157  161.8105 C.ar    1  UNL1        0.0113
     22 C         140.1133  139.7753  160.5856 C.3     1  UNL1        0.1213
     23 C         138.4637  138.5116  165.3481 C.3     1  UNL1        0.4200
     24 F         137.5358  138.7393  166.5045 F       1  UNL1       -0.1658
     25 F         138.2983  139.9436  164.9333 F       1  UNL1       -0.1658
     26 F         138.6291  137.0796  165.7629 F       1  UNL1       -0.1658
     27 N         137.1563  139.7862  155.9957 N.3     1  UNL1       -0.2975
     28 H         137.7384  139.4107  155.2470 H       1  UNL1        0.1232
     29 C         134.6224  140.3519  156.0913 C.3     1  UNL1        0.1591
     30 C         133.3911  140.9119  155.4431 C.3     1  UNL1        0.1729
     31 O         133.4623  141.4662  154.0511 O.3     1  UNL1       -0.3511
     32 C         134.7649  141.4605  153.3073 C.3     1  UNL1        0.1437
     33 C         135.9962  140.9005  153.9555 C.3     1  UNL1        0.0503
     34 C         135.9250  140.3462  155.3475 C.3     1  UNL1        0.0865
     35 C         133.3033  139.1115  157.9545 C.3     1  UNL1        0.1742
     36 O         134.5512  139.7976  157.4833 O.3     1  UNL1       -0.3496
     37 O         141.1744  145.6756  160.5627 O.3     1  UNL1       -0.4327
     38 C         140.5794  145.9470  161.9126 C.3     1  UNL1        0.2313
     39 C         139.1221  145.6875  162.1558 C.3     1  UNL1        0.1373
     40 N         138.6915  144.8919  163.3523 N.am    1  UNL1       -0.3010
     41 C         137.9170  143.6206  163.1684 C.2     1  UNL1        0.2231
     42 C         137.4864  142.8249  164.3649 C.3     1  UNL1        0.0946
     43 O         137.5731  143.1448  161.7880 O.2     1  UNL1       -0.2751
     44 H         138.9172  145.2041  164.2583 H       1  UNL1        0.1495
@<TRIPOS>BOND
     1    35    36    1
     2    36    29    1
     3    29    30    1
     4    30    31    1
     5    31    32    1
     6    32    33    1
     7    33    34    1
     8    34    27    1
     9     1    27    1
    10     1     2    1
    11     3     2    1
    12     3     4    1
    13     4     5    1
    14     5     6   am
    15     6     7    2
    16     6    37    1
    17    37    38    1
    18    38    39    1
    19    39    40    1
    20    40    41   am
    21    41    42    1
    22    41    43    2
    23     5     8    1
    24     8     9    1
    25     9    11    1
    26    11    12    2
    27    11    13   am
    28    13    14    1
    29    14    15    1
    30    15    16    1
    31    16    17   ar
    32    17    18   ar
    33    18    19   ar
    34    19    23    1
    35    23    24    1
    36    23    25    1
    37    23    26    1
    38    19    20   ar
    39    20    21   ar
    40    21    22    1
    41     9    10    1
    42    34    29    1
    43    10     1    1
    44     9     3    1
    45    22    13    1
    46    21    16   ar
    47    27    28    1
    48    40    44    1
@<TRIPOS>MOLECULE
*****
 44 48 0 0 0
SMALL
GASTEIGER

@<TRIPOS>ATOM
      1 C         139.6139  143.2973  159.4607 C.3     1  UNL1        0.0546
      2 C         140.4744  143.2010  158.2359 C.3     1  UNL1        0.0180
      3 C         140.3353  141.8149  157.6795 C.3     1  UNL1        0.0311
      4 C         140.7810  140.8987  156.5787 C.3     1  UNL1        0.0973
      5 N         140.1101  139.5722  156.7794 N.am    1  UNL1       -0.2455
      6 C         140.2713  138.3618  155.9081 C.2     1  UNL1        0.4049
      7 O         139.5323  137.0983  156.2355 O.2     1  UNL1       -0.2262
      8 C         139.2496  139.6686  158.0042 C.3     1  UNL1        0.1053
      9 C         139.3888  141.0546  158.5606 C.3     1  UNL1        0.0903
     10 C         138.9430  141.9708  159.6614 C.3     1  UNL1        0.0261
     11 C         138.4423  140.2944  159.4416 C.2     1  UNL1        0.2267
     12 O         137.0058  140.1368  159.0394 O.2     1  UNL1       -0.2748
     13 N         138.9323  139.6917  160.7249 N.am    1  UNL1       -0.2750
     14 C         137.9858  138.9315  161.6059 C.3     1  UNL1        0.1000
     15 C         138.4758  138.3288  162.8891 C.3     1  UNL1        0.0670
     16 C         139.9123  138.4864  163.2913 C.ar    1  UNL1        0.0583
     17 N         140.4023  137.8837  164.5745 N.ar    1  UNL1       -0.2484
     18 C         141.8388  138.0412  164.9767 C.ar    1  UNL1        0.1023
     19 C         142.7852  138.8015  164.0956 C.ar    1  UNL1        0.0902
     20 C         142.2952  139.4042  162.8124 C.ar    1  UNL1        0.0040
     21 C         140.8588  139.2466  162.4102 C.ar    1  UNL1        0.0113
     22 C         140.3688  139.8493  161.1270 C.3     1  UNL1        0.1213
     23 C         144.2217  138.9591  164.4978 C.3     1  UNL1        0.4200
     24 F         145.6582  139.1166  164.9000 F       1  UNL1       -0.1658
     25 F         143.8878  138.4782  165.8788 F       1  UNL1       -0.1658
     26 F         144.5556  139.4399  163.1167 F       1  UNL1       -0.1658
     27 N         139.4527  144.5077  160.3320 N.3     1  UNL1       -0.2975
     28 H         140.0613  145.2304  159.9477 H       1  UNL1        0.1232
     29 C         141.1780  144.4418  162.2734 C.3     1  UNL1        0.1591
     30 C         141.4805  144.3558  163.7400 C.3     1  UNL1        0.1729
     31 O         140.3603  144.2497  164.7319 O.3     1  UNL1       -0.3511
     32 C         138.9375  144.2296  164.2572 C.3     1  UNL1        0.1437
     33 C         138.6350  144.3156  162.7906 C.3     1  UNL1        0.0503
     34 C         139.7552  144.4217  161.7986 C.3     1  UNL1        0.0865
     35 C         143.1942  143.3708  161.0334 C.3     1  UNL1        0.1742
     36 O         142.2981  144.5479  161.2815 O.3     1  UNL1       -0.3496
     37 O         141.1716  138.4151  154.7095 O.3     1  UNL1       -0.4327
     38 C         142.6462  138.1913  154.8686 C.3     1  UNL1        0.2313
     39 C         143.2070  137.8111  156.2070 C.3     1  UNL1        0.1373
     40 N         143.7056  138.8739  157.1406 N.am    1  UNL1       -0.3010
     41 C         143.1906  138.9375  158.5480 C.2     1  UNL1        0.2231
     42 C         143.6892  140.0004  159.4817 C.3     1  UNL1        0.0946
     43 O         142.1771  137.9384  159.0217 O.2     1  UNL1       -0.2751
     44 H         144.3709  139.5297  156.8297 H       1  UNL1        0.1495
@<TRIPOS>BOND
     1    35    36    1
     2    36    29    1
     3    29    30    1
     4    30    31    1
     5    31    32    1
     6    32    33    1
     7    33    34    1
     8    34    27    1
     9     1    27    1
    10     1     2    1
    11     3     2    1
    12     3     4    1
    13     4     5    1
    14     5     6   am
    15     6     7    2
    16     6    37    1
    17    37    38    1
    18    38    39    1
    19    39    40    1
    20    40    41   am
    21    41    42    1
    22    41    43    2
    23     5     8    1
    24     8     9    1
    25     9    11    1
    26    11    12    2
    27    11    13   am
    28    13    14    1
    29    14    15    1
    30    15    16    1
    31    16    17   ar
    32    17    18   ar
    33    18    19   ar
    34    19    23    1
    35    23    24    1
    36    23    25    1
    37    23    26    1
    38    19    20   ar
    39    20    21   ar
    40    21    22    1
    41     9    10    1
    42    34    29    1
    43    10     1    1
    44     9     3    1
    45    22    13    1
    46    21    16   ar
    47    27    28    1
    48    40    44    1
@<TRIPOS>MOLECULE
*****
 44 48 0 0 0
SMALL
GASTEIGER

@<TRIPOS>ATOM
      1 C         141.8560  144.6680  162.4128 C.3     1  UNL1        0.0546
      2 C         140.8116  145.5163  161.7498 C.3     1  UNL1        0.0180
      3 C         140.7006  145.0807  160.3187 C.3     1  UNL1        0.0311
      4 C         139.9865  145.3358  159.0245 C.3     1  UNL1        0.0973
      5 N         140.5210  144.3760  158.0032 N.am    1  UNL1       -0.2455
      6 C         140.0872  144.2811  156.5704 C.2     1  UNL1        0.4049
      7 O         140.7154  143.2660  155.6622 O.2     1  UNL1       -0.2262
      8 C         141.5654  143.5277  158.6662 C.3     1  UNL1        0.1053
      9 C         141.6764  143.9633  160.0972 C.3     1  UNL1        0.0903
     10 C         142.3905  143.7082  161.3915 C.3     1  UNL1        0.0261
     11 C         142.6523  142.8458  159.8758 C.2     1  UNL1        0.2267
     12 O         143.7725  143.0123  158.8923 O.2     1  UNL1       -0.2748
     13 N         142.5078  141.5619  160.6379 N.am    1  UNL1       -0.2750
     14 C         143.4837  140.4445  160.4165 C.3     1  UNL1        0.1000
     15 C         143.3392  139.1606  161.1785 C.3     1  UNL1        0.0670
     16 C         142.2189  138.9942  162.1620 C.ar    1  UNL1        0.0583
     17 N         142.0745  137.7102  162.9241 N.ar    1  UNL1       -0.2484
     18 C         140.9542  137.5438  163.9076 C.ar    1  UNL1        0.1023
     19 C         139.9783  138.6613  164.1290 C.ar    1  UNL1        0.0902
     20 C         140.1228  139.9451  163.3669 C.ar    1  UNL1        0.0040
     21 C         141.2431  140.1116  162.3834 C.ar    1  UNL1        0.0113
     22 C         141.3875  141.3954  161.6214 C.3     1  UNL1        0.1213
     23 C         138.8580  138.4948  165.1125 C.3     1  UNL1        0.4200
     24 F         137.7378  138.3284  166.0960 F       1  UNL1       -0.1658
     25 F         138.4997  139.9422  164.9492 F       1  UNL1       -0.1658
     26 F         139.2164  137.0474  165.2757 F       1  UNL1       -0.1658
     27 N         142.2898  144.7629  163.8456 N.3     1  UNL1       -0.2975
     28 H         143.2763  145.0221  163.8380 H       1  UNL1        0.1232
     29 C         143.3429  142.6765  164.9805 C.3     1  UNL1        0.1591
     30 C         143.2150  141.4853  165.8832 C.3     1  UNL1        0.1729
     31 O         141.9063  141.1895  166.5538 O.3     1  UNL1       -0.3511
     32 C         140.7253  142.0848  166.3216 C.3     1  UNL1        0.1437
     33 C         140.8532  143.2759  165.4189 C.3     1  UNL1        0.0503
     34 C         142.1620  143.5717  164.7483 C.3     1  UNL1        0.0865
     35 C         145.2160  142.0085  163.3086 C.3     1  UNL1        0.1742
     36 O         144.6516  142.9723  164.3099 O.3     1  UNL1       -0.3496
     37 O         139.0252  145.2014  156.0458 O.3     1  UNL1       -0.4327
     38 C         139.3797  146.2647  155.0489 C.3     1  UNL1        0.2313
     39 C         139.4542  147.7001  155.4779 C.3     1  UNL1        0.1373
     40 N         139.0438  148.0901  156.8669 N.am    1  UNL1       -0.3010
     41 C         138.2956  149.3697  157.0965 C.2     1  UNL1        0.2231
     42 C         137.8852  149.7598  158.4856 C.3     1  UNL1        0.0946
     43 O         137.9579  150.2595  155.9370 O.2     1  UNL1       -0.2751
     44 H         139.2654  147.5061  157.6279 H       1  UNL1        0.1495
@<TRIPOS>BOND
     1    35    36    1
     2    36    29    1
     3    29    30    1
     4    30    31    1
     5    31    32    1
     6    32    33    1
     7    33    34    1
     8    34    27    1
     9     1    27    1
    10     1     2    1
    11     3     2    1
    12     3     4    1
    13     4     5    1
    14     5     6   am
    15     6     7    2
    16     6    37    1
    17    37    38    1
    18    38    39    1
    19    39    40    1
    20    40    41   am
    21    41    42    1
    22    41    43    2
    23     5     8    1
    24     8     9    1
    25     9    11    1
    26    11    12    2
    27    11    13   am
    28    13    14    1
    29    14    15    1
    30    15    16    1
    31    16    17   ar
    32    17    18   ar
    33    18    19   ar
    34    19    23    1
    35    23    24    1
    36    23    25    1
    37    23    26    1
    38    19    20   ar
    39    20    21   ar
    40    21    22    1
    41     9    10    1
    42    34    29    1
    43    10     1    1
    44     9     3    1
    45    22    13    1
    46    21    16   ar
    47    27    28    1
    48    40    44    1
@<TRIPOS>MOLECULE
*****
 44 48 0 0 0
SMALL
GASTEIGER

@<TRIPOS>ATOM
      1 C         144.1911  139.9312  161.2945 C.3     1  UNL1        0.0546
      2 C         143.5598  138.5907  161.0612 C.3     1  UNL1        0.0180
      3 C         142.8089  138.6513  159.7641 C.3     1  UNL1        0.0311
      4 C         141.9546  137.8604  158.8183 C.3     1  UNL1        0.0973
      5 N         141.5939  138.7495  157.6653 N.am    1  UNL1       -0.2455
      6 C         140.7500  138.3655  156.4861 C.2     1  UNL1        0.4049
      7 O         140.4729  139.3670  155.4043 O.2     1  UNL1       -0.2262
      8 C         142.2252  140.0900  157.8986 C.3     1  UNL1        0.1053
      9 C         142.9761  140.0294  159.1957 C.3     1  UNL1        0.0903
     10 C         143.8304  140.8203  160.1415 C.3     1  UNL1        0.0261
     11 C         143.1434  141.4074  158.6273 C.2     1  UNL1        0.2267
     12 O         144.0663  141.6330  157.4665 O.2     1  UNL1       -0.2748
     13 N         142.3878  142.5599  159.2197 N.am    1  UNL1       -0.2750
     14 C         142.5551  143.9379  158.6513 C.3     1  UNL1        0.1000
     15 C         141.7995  145.0903  159.2437 C.3     1  UNL1        0.0670
     16 C         140.8766  144.8647  160.4044 C.ar    1  UNL1        0.0583
     17 N         140.1209  146.0172  160.9968 N.ar    1  UNL1       -0.2484
     18 C         139.1980  145.7916  162.1576 C.ar    1  UNL1        0.1023
     19 C         139.0308  144.4135  162.7260 C.ar    1  UNL1        0.0902
     20 C         139.7864  143.2611  162.1336 C.ar    1  UNL1        0.0040
     21 C         140.7093  143.4867  160.9728 C.ar    1  UNL1        0.0113
     22 C         141.4649  142.3343  160.3804 C.3     1  UNL1        0.1213
     23 C         138.1079  144.1879  163.8867 C.3     1  UNL1        0.4200
     24 F         137.1850  143.9623  165.0475 F       1  UNL1       -0.1658
     25 F         137.3114  143.2181  163.0650 F       1  UNL1       -0.1658
     26 F         138.9043  145.1577  164.7084 F       1  UNL1       -0.1658
     27 N         145.0350  140.3151  162.4737 N.3     1  UNL1       -0.2975
     28 H         145.6788  139.5415  162.6394 H       1  UNL1        0.1232
     29 C         144.3467  142.0429  164.2878 C.3     1  UNL1        0.1591
     30 C         143.6984  142.3564  165.6037 C.3     1  UNL1        0.1729
     31 O         143.0903  141.2556  166.4213 O.3     1  UNL1       -0.3511
     32 C         143.1304  139.8413  165.9230 C.3     1  UNL1        0.1437
     33 C         143.7786  139.5278  164.6071 C.3     1  UNL1        0.0503
     34 C         144.3868  140.6286  163.7895 C.3     1  UNL1        0.0865
     35 C         144.1294  143.8568  162.4405 C.3     1  UNL1        0.1742
     36 O         144.9548  143.1436  163.4702 O.3     1  UNL1       -0.3496
     37 O         140.1832  136.9802  156.3888 O.3     1  UNL1       -0.4327
     38 C         140.1914  136.2572  155.0746 C.3     1  UNL1        0.2313
     39 C         141.2335  135.2140  154.7989 C.3     1  UNL1        0.1373
     40 N         141.7767  134.3814  155.9221 N.am    1  UNL1       -0.3010
     41 C         143.0254  134.8076  156.6356 C.2     1  UNL1        0.2231
     42 C         143.5687  133.9750  157.7589 C.3     1  UNL1        0.0946
     43 O         143.7308  136.0664  156.2260 O.2     1  UNL1       -0.2751
     44 H         141.3138  133.5552  156.1910 H       1  UNL1        0.1495
@<TRIPOS>BOND
     1    35    36    1
     2    36    29    1
     3    29    30    1
     4    30    31    1
     5    31    32    1
     6    32    33    1
     7    33    34    1
     8    34    27    1
     9     1    27    1
    10     1     2    1
    11     3     2    1
    12     3     4    1
    13     4     5    1
    14     5     6   am
    15     6     7    2
    16     6    37    1
    17    37    38    1
    18    38    39    1
    19    39    40    1
    20    40    41   am
    21    41    42    1
    22    41    43    2
    23     5     8    1
    24     8     9    1
    25     9    11    1
    26    11    12    2
    27    11    13   am
    28    13    14    1
    29    14    15    1
    30    15    16    1
    31    16    17   ar
    32    17    18   ar
    33    18    19   ar
    34    19    23    1
    35    23    24    1
    36    23    25    1
    37    23    26    1
    38    19    20   ar
    39    20    21   ar
    40    21    22    1
    41     9    10    1
    42    34    29    1
    43    10     1    1
    44     9     3    1
    45    22    13    1
    46    21    16   ar
    47    27    28    1
    48    40    44    1
