@<TRIPOS>MOLECULE
*****
 41 45 0 0 0
SMALL
GASTEIGER

@<TRIPOS>ATOM
      1 C         143.1250  144.0437  162.4130 C.2     1  UNL1        0.2251
      2 O         144.4763  144.6924  162.4708 O.2     1  UNL1       -0.2749
      3 N         142.6280  143.2408  163.5784 N.am    1  UNL1       -0.2795
      4 C         141.2767  142.5922  163.5206 C.3     1  UNL1        0.0942
      5 C         140.7797  141.7893  164.6861 C.3     1  UNL1        0.0343
      6 C         141.6340  141.6350  165.9094 C.3     1  UNL1        0.0911
      7 C         142.9853  142.2836  165.9672 C.3     1  UNL1        0.0343
      8 C         143.4823  143.0865  164.8017 C.3     1  UNL1        0.0942
      9 C         140.5621  144.5066  158.7431 C.3     1  UNL1        0.0542
     10 C         140.2603  145.3079  159.9747 C.3     1  UNL1        0.0162
     11 C         141.1145  145.1536  161.1980 C.3     1  UNL1        0.0104
     12 C         142.2707  144.1980  161.1897 C.3     1  UNL1        0.0768
     13 C         142.5726  143.3967  159.9581 C.3     1  UNL1        0.0095
     14 C         143.2533  142.4245  159.0407 C.3     1  UNL1        0.0005
     15 C         143.6633  142.9048  160.8628 C.3     1  UNL1        0.0005
     16 C         141.7184  143.5510  158.7348 C.3     1  UNL1        0.0162
     17 N         139.7079  144.6609  157.5199 N.3     1  UNL1       -0.2962
     18 H         139.5158  143.7206  157.1744 H       1  UNL1        0.1235
     19 C         140.2079  145.4578  156.3516 C.3     1  UNL1        0.0768
     20 C         141.2178  144.8632  155.4154 C.3     1  UNL1        0.0220
     21 C         138.6779  149.6320  155.6551 C.ar    1  UNL1        0.1387
     22 C         139.4580  148.9305  154.5831 C.ar    1  UNL1        0.0366
     23 C         139.9680  147.5391  154.8152 C.ar    1  UNL1        0.0001
     24 C         139.6979  146.8492  156.1194 C.ar    1  UNL1       -0.0078
     25 C         138.9178  147.5507  157.1915 C.ar    1  UNL1        0.0001
     26 C         138.4078  148.9421  156.9593 C.ar    1  UNL1        0.0366
     27 C         138.9570  151.9805  154.5796 C.3     1  UNL1        0.2525
     28 O         138.1679  151.0234  155.4230 O.3     1  UNL1       -0.4714
     29 C         140.4347  140.8365  166.3267 C.2     1  UNL1        0.2286
     30 O         139.5713  141.3147  167.4563 O.2     1  UNL1       -0.2746
     31 N         140.0989  139.5598  165.6146 N.am    1  UNL1       -0.2793
     32 C         138.9380  138.6597  165.9185 C.3     1  UNL1        0.0935
     33 C         138.9866  137.5026  164.9652 C.3     1  UNL1        0.0233
     34 C         140.1775  137.6875  164.0721 C.3     1  UNL1        0.0233
     35 C         140.8649  138.9589  164.4734 C.3     1  UNL1        0.0935
     36 C         142.0717  141.2034  167.2776 C.ar    1  UNL1       -0.0145
     37 C         142.4081  142.2316  168.3165 C.ar    1  UNL1       -0.0038
     38 C         142.8459  141.8000  169.6848 C.ar    1  UNL1       -0.0003
     39 C         142.9473  140.3402  170.0141 C.ar    1  UNL1       -0.0000
     40 C         142.6110  139.3119  168.9751 C.ar    1  UNL1       -0.0003
     41 C         142.1732  139.7434  167.6068 C.ar    1  UNL1       -0.0038
@<TRIPOS>BOND
     1    27    28    1
     2    28    21    1
     3    21    22   ar
     4    22    23   ar
     5    23    24   ar
     6    24    19    1
     7    19    20    1
     8    19    17    1
     9     9    17    1
    10     9    10    1
    11    10    11    1
    12    11    12    1
    13    12     1    1
    14     1     2    2
    15     1     3   am
    16     3     4    1
    17     4     5    1
    18     5     6    1
    19     6    29    1
    20    29    30    2
    21    29    31   am
    22    31    32    1
    23    32    33    1
    24    33    34    1
    25    34    35    1
    26     6    36    1
    27    36    37   ar
    28    37    38   ar
    29    38    39   ar
    30    39    40   ar
    31    40    41   ar
    32     6     7    1
    33     7     8    1
    34    12    13    1
    35    13    14    1
    36    13    15    1
    37    13    16    1
    38    24    25   ar
    39    25    26   ar
    40    26    21   ar
    41    16     9    1
    42     8     3    1
    43    35    31    1
    44    41    36   ar
    45    17    18    1
@<TRIPOS>MOLECULE
*****
 41 45 0 0 0
SMALL
GASTEIGER

@<TRIPOS>ATOM
      1 C         138.8774  144.1978  162.4134 C.2     1  UNL1        0.2251
      2 O         137.5334  144.8560  162.5167 O.2     1  UNL1       -0.2749
      3 N         139.4999  143.5697  163.6250 N.am    1  UNL1       -0.2795
      4 C         140.8438  142.9115  163.5217 C.3     1  UNL1        0.0942
      5 C         141.4664  142.2833  164.7332 C.3     1  UNL1        0.0343
      6 C         140.7451  142.3134  166.0481 C.3     1  UNL1        0.0911
      7 C         139.4011  142.9716  166.1513 C.3     1  UNL1        0.0343
      8 C         138.7786  143.5997  164.9398 C.3     1  UNL1        0.0942
      9 C         141.0414  144.1076  158.4689 C.3     1  UNL1        0.0542
     10 C         141.3730  145.1626  159.4823 C.3     1  UNL1        0.0162
     11 C         140.6516  145.1926  160.7972 C.3     1  UNL1        0.0104
     12 C         139.5987  144.1677  161.0986 C.3     1  UNL1        0.0768
     13 C         139.2671  143.1127  160.0852 C.3     1  UNL1        0.0095
     14 C         138.6051  141.9249  159.4520 C.3     1  UNL1        0.0005
     15 C         138.3159  142.7302  161.1801 C.3     1  UNL1        0.0005
     16 C         139.9884  143.0826  158.7703 C.3     1  UNL1        0.0162
     17 N         141.7627  144.0775  157.1541 N.3     1  UNL1       -0.2962
     18 H         142.4763  144.8053  157.1931 H       1  UNL1        0.1235
     19 C         141.0033  144.2837  155.8771 C.3     1  UNL1        0.0768
     20 C         140.7260  143.1193  154.9731 C.3     1  UNL1        0.0220
     21 C         139.5567  148.3953  154.7582 C.ar    1  UNL1        0.1387
     22 C         139.0889  147.7566  156.0322 C.ar    1  UNL1        0.0366
     23 C         139.5711  146.3860  156.4052 C.ar    1  UNL1        0.0001
     24 C         140.5211  145.6542  155.5042 C.ar    1  UNL1       -0.0078
     25 C         140.9889  146.2929  154.2301 C.ar    1  UNL1        0.0001
     26 C         140.5067  147.6635  153.8572 C.ar    1  UNL1        0.0366
     27 C         138.6498  150.7282  155.4544 C.3     1  UNL1        0.2525
     28 O         139.0745  149.7658  154.3852 O.3     1  UNL1       -0.4714
     29 C         141.9885  141.5768  166.4498 C.2     1  UNL1        0.2286
     30 O         143.0298  142.2623  167.2840 O.2     1  UNL1       -0.2746
     31 N         142.1905  140.1548  166.0175 N.am    1  UNL1       -0.2793
     32 C         143.3764  139.2950  166.3407 C.3     1  UNL1        0.0935
     33 C         143.1610  137.9516  165.7090 C.3     1  UNL1        0.0233
     34 C         141.8419  137.9812  164.9954 C.3     1  UNL1        0.0233
     35 C         141.2421  139.3427  165.1861 C.3     1  UNL1        0.0935
     36 C         140.4556  142.0876  167.5024 C.ar    1  UNL1       -0.0145
     37 C         140.6249  143.2094  168.4837 C.ar    1  UNL1       -0.0038
     38 C         140.3354  142.9836  169.9382 C.ar    1  UNL1       -0.0003
     39 C         139.8765  141.6362  170.4112 C.ar    1  UNL1       -0.0000
     40 C         139.7072  140.5145  169.4298 C.ar    1  UNL1       -0.0003
     41 C         139.9967  140.7401  167.9754 C.ar    1  UNL1       -0.0038
@<TRIPOS>BOND
     1    27    28    1
     2    28    21    1
     3    21    22   ar
     4    22    23   ar
     5    23    24   ar
     6    24    19    1
     7    19    20    1
     8    19    17    1
     9     9    17    1
    10     9    10    1
    11    10    11    1
    12    11    12    1
    13    12     1    1
    14     1     2    2
    15     1     3   am
    16     3     4    1
    17     4     5    1
    18     5     6    1
    19     6    29    1
    20    29    30    2
    21    29    31   am
    22    31    32    1
    23    32    33    1
    24    33    34    1
    25    34    35    1
    26     6    36    1
    27    36    37   ar
    28    37    38   ar
    29    38    39   ar
    30    39    40   ar
    31    40    41   ar
    32     6     7    1
    33     7     8    1
    34    12    13    1
    35    13    14    1
    36    13    15    1
    37    13    16    1
    38    24    25   ar
    39    25    26   ar
    40    26    21   ar
    41    16     9    1
    42     8     3    1
    43    35    31    1
    44    41    36   ar
    45    17    18    1
@<TRIPOS>MOLECULE
*****
 41 45 0 0 0
SMALL
GASTEIGER

@<TRIPOS>ATOM
      1 C         138.9214  144.2438  162.3457 C.2     1  UNL1        0.2251
      2 O         137.5874  144.9242  162.4340 O.2     1  UNL1       -0.2749
      3 N         139.5233  143.6120  163.5657 N.am    1  UNL1       -0.2795
      4 C         140.8572  142.9317  163.4773 C.3     1  UNL1        0.0942
      5 C         141.4592  142.2998  164.6973 C.3     1  UNL1        0.0343
      6 C         140.7272  142.3483  166.0057 C.3     1  UNL1        0.0911
      7 C         139.3933  143.0287  166.0941 C.3     1  UNL1        0.0343
      8 C         138.7914  143.6605  164.8741 C.3     1  UNL1        0.0942
      9 C         141.1172  144.0983  158.4205 C.3     1  UNL1        0.0542
     10 C         141.4385  145.1693  159.4203 C.3     1  UNL1        0.0162
     11 C         140.7065  145.2178  160.7287 C.3     1  UNL1        0.0104
     12 C         139.6533  144.1953  161.0373 C.3     1  UNL1        0.0768
     13 C         139.3320  143.1243  160.0374 C.3     1  UNL1        0.0095
     14 C         138.6777  141.9255  159.4171 C.3     1  UNL1        0.0005
     15 C         138.3729  142.7565  161.1304 C.3     1  UNL1        0.0005
     16 C         140.0640  143.0757  158.7290 C.3     1  UNL1        0.0162
     17 N         141.8492  144.0498  157.1121 N.3     1  UNL1       -0.2962
     18 H         141.1476  143.8970  156.3877 H       1  UNL1        0.1235
     19 C         142.9270  143.0298  156.8930 C.3     1  UNL1        0.0768
     20 C         143.7022  143.0219  155.6090 C.3     1  UNL1        0.0220
     21 C         143.8346  139.9937  160.0880 C.ar    1  UNL1        0.1387
     22 C         144.2448  141.4243  160.2747 C.ar    1  UNL1        0.0366
     23 C         143.9423  142.4364  159.2097 C.ar    1  UNL1        0.0001
     24 C         143.2295  142.0178  157.9580 C.ar    1  UNL1       -0.0078
     25 C         142.8193  140.5871  157.7714 C.ar    1  UNL1        0.0001
     26 C         143.1218  139.5751  158.8364 C.ar    1  UNL1        0.0366
     27 C         144.1890  139.4003  162.5925 C.3     1  UNL1        0.2525
     28 O         144.1371  138.9816  161.1530 O.3     1  UNL1       -0.4714
     29 C         141.9550  141.5938  166.4219 C.2     1  UNL1        0.2286
     30 O         143.0110  142.2736  167.2422 O.2     1  UNL1       -0.2746
     31 N         142.1269  140.1596  166.0178 N.am    1  UNL1       -0.2793
     32 C         143.2946  139.2816  166.3578 C.3     1  UNL1        0.0935
     33 C         143.0507  137.9308  165.7529 C.3     1  UNL1        0.0233
     34 C         141.7321  137.9740  165.0390 C.3     1  UNL1        0.0233
     35 C         141.1612  139.3514  165.2027 C.3     1  UNL1        0.0935
     36 C         140.4217  142.1348  167.4586 C.ar    1  UNL1       -0.0145
     37 C         140.5982  143.2595  168.4353 C.ar    1  UNL1       -0.0038
     38 C         140.2926  143.0459  169.8883 C.ar    1  UNL1       -0.0003
     39 C         139.8106  141.7078  170.3645 C.ar    1  UNL1       -0.0000
     40 C         139.6341  140.5832  169.3878 C.ar    1  UNL1       -0.0003
     41 C         139.9396  140.7966  167.9349 C.ar    1  UNL1       -0.0038
@<TRIPOS>BOND
     1    27    28    1
     2    28    21    1
     3    21    22   ar
     4    22    23   ar
     5    23    24   ar
     6    24    19    1
     7    19    20    1
     8    19    17    1
     9     9    17    1
    10     9    10    1
    11    10    11    1
    12    11    12    1
    13    12     1    1
    14     1     2    2
    15     1     3   am
    16     3     4    1
    17     4     5    1
    18     5     6    1
    19     6    29    1
    20    29    30    2
    21    29    31   am
    22    31    32    1
    23    32    33    1
    24    33    34    1
    25    34    35    1
    26     6    36    1
    27    36    37   ar
    28    37    38   ar
    29    38    39   ar
    30    39    40   ar
    31    40    41   ar
    32     6     7    1
    33     7     8    1
    34    12    13    1
    35    13    14    1
    36    13    15    1
    37    13    16    1
    38    24    25   ar
    39    25    26   ar
    40    26    21   ar
    41    16     9    1
    42     8     3    1
    43    35    31    1
    44    41    36   ar
    45    17    18    1
@<TRIPOS>MOLECULE
*****
 41 45 0 0 0
SMALL
GASTEIGER

@<TRIPOS>ATOM
      1 C         144.7310  141.8660  163.2116 C.2     1  UNL1        0.2251
      2 O         146.2185  141.7359  163.0684 O.2     1  UNL1       -0.2749
      3 N         143.8982  142.2850  162.0366 N.am    1  UNL1       -0.2795
      4 C         142.4108  142.4151  162.1798 C.3     1  UNL1        0.0942
      5 C         141.5779  142.8342  161.0047 C.3     1  UNL1        0.0343
      6 C         142.2325  143.1231  159.6864 C.3     1  UNL1        0.0911
      7 C         143.7201  142.9930  159.5432 C.3     1  UNL1        0.0343
      8 C         144.5528  142.5740  160.7183 C.3     1  UNL1        0.0942
      9 C         142.7671  140.9992  167.1666 C.3     1  UNL1        0.0542
     10 C         143.1694  142.4021  166.8205 C.3     1  UNL1        0.0162
     11 C         143.8240  142.6911  165.5022 C.3     1  UNL1        0.0104
     12 C         144.0764  141.5771  164.5300 C.3     1  UNL1        0.0768
     13 C         143.6741  140.1740  164.8760 C.3     1  UNL1        0.0095
     14 C         143.4752  138.6927  164.7490 C.3     1  UNL1        0.0005
     15 C         144.2596  139.9485  163.5136 C.3     1  UNL1        0.0005
     16 C         143.0195  139.8851  166.1944 C.3     1  UNL1        0.0162
     17 N         142.1125  140.7102  168.4849 N.3     1  UNL1       -0.2962
     18 H         142.5256  139.8461  168.8357 H       1  UNL1        0.1235
     19 C         140.6241  140.5411  168.5621 C.3     1  UNL1        0.0768
     20 C         139.9606  140.3355  169.8916 C.3     1  UNL1        0.0220
     21 C         138.1493  140.6503  164.8053 C.ar    1  UNL1        0.1387
     22 C         138.9548  141.8499  165.2080 C.ar    1  UNL1        0.0366
     23 C         139.7797  141.8135  166.4602 C.ar    1  UNL1        0.0001
     24 C         139.7991  140.5775  167.3098 C.ar    1  UNL1       -0.0078
     25 C         138.9937  139.3779  166.9072 C.ar    1  UNL1        0.0001
     26 C         138.1687  139.4143  165.6549 C.ar    1  UNL1        0.0366
     27 C         137.7255  141.5794  162.4164 C.3     1  UNL1        0.2525
     28 O         137.3243  140.6867  163.5531 O.3     1  UNL1       -0.4714
     29 C         140.7996  143.3852  159.3287 C.2     1  UNL1        0.2286
     30 O         140.2615  144.7849  159.3645 O.2     1  UNL1       -0.2746
     31 N         139.9047  142.2475  158.9352 N.am    1  UNL1       -0.2793
     32 C         138.4580  142.3550  158.5536 C.3     1  UNL1        0.0935
     33 C         137.9585  140.9765  158.2368 C.3     1  UNL1        0.0233
     34 C         139.0965  140.0171  158.4227 C.3     1  UNL1        0.0233
     35 C         140.2993  140.8026  158.8543 C.3     1  UNL1        0.0935
     36 C         142.3895  143.5031  158.2439 C.ar    1  UNL1       -0.0145
     37 C         142.1535  144.9199  157.8115 C.ar    1  UNL1       -0.0038
     38 C         142.3105  145.2998  156.3689 C.ar    1  UNL1       -0.0003
     39 C         142.7035  144.2631  155.3588 C.ar    1  UNL1       -0.0000
     40 C         142.9395  142.8463  155.7912 C.ar    1  UNL1       -0.0003
     41 C         142.7825  142.4662  157.2337 C.ar    1  UNL1       -0.0038
@<TRIPOS>BOND
     1    27    28    1
     2    28    21    1
     3    21    22   ar
     4    22    23   ar
     5    23    24   ar
     6    24    19    1
     7    19    20    1
     8    19    17    1
     9     9    17    1
    10     9    10    1
    11    10    11    1
    12    11    12    1
    13    12     1    1
    14     1     2    2
    15     1     3   am
    16     3     4    1
    17     4     5    1
    18     5     6    1
    19     6    29    1
    20    29    30    2
    21    29    31   am
    22    31    32    1
    23    32    33    1
    24    33    34    1
    25    34    35    1
    26     6    36    1
    27    36    37   ar
    28    37    38   ar
    29    38    39   ar
    30    39    40   ar
    31    40    41   ar
    32     6     7    1
    33     7     8    1
    34    12    13    1
    35    13    14    1
    36    13    15    1
    37    13    16    1
    38    24    25   ar
    39    25    26   ar
    40    26    21   ar
    41    16     9    1
    42     8     3    1
    43    35    31    1
    44    41    36   ar
    45    17    18    1
@<TRIPOS>MOLECULE
*****
 41 45 0 0 0
SMALL
GASTEIGER

@<TRIPOS>ATOM
      1 C         140.5998  144.5851  162.4022 C.2     1  UNL1        0.2251
      2 O         140.7841  146.0670  162.2605 O.2     1  UNL1       -0.2749
      3 N         140.1735  143.7659  161.2202 N.am    1  UNL1       -0.2795
      4 C         139.9892  142.2840  161.3619 C.3     1  UNL1        0.0942
      5 C         139.5629  141.4648  160.1799 C.3     1  UNL1        0.0343
      6 C         139.3210  142.1274  158.8561 C.3     1  UNL1        0.0911
      7 C         139.5053  143.6093  158.7144 C.3     1  UNL1        0.0343
      8 C         139.9315  144.4285  159.8964 C.3     1  UNL1        0.0942
      9 C         141.3257  142.5972  166.3735 C.3     1  UNL1        0.0542
     10 C         142.3610  142.5114  165.2915 C.3     1  UNL1        0.0162
     11 C         142.1190  143.1741  163.9677 C.3     1  UNL1        0.0104
     12 C         140.8417  143.9224  163.7259 C.3     1  UNL1        0.0768
     13 C         139.8064  144.0082  164.8080 C.3     1  UNL1        0.0095
     14 C         138.5335  144.3674  165.5156 C.3     1  UNL1        0.0005
     15 C         139.1224  144.7956  163.7300 C.3     1  UNL1        0.0005
     16 C         140.0484  143.3456  166.1318 C.3     1  UNL1        0.0162
     17 N         141.5677  141.9345  167.6972 N.3     1  UNL1       -0.2962
     18 H         142.5746  141.9579  167.8585 H       1  UNL1        0.1235
     19 C         141.1264  140.5181  167.9187 C.3     1  UNL1        0.0768
     20 C         141.2955  139.8821  169.2666 C.3     1  UNL1        0.0220
     21 C         139.2956  138.1772  164.5397 C.ar    1  UNL1        0.1387
     22 C         140.7852  138.2021  164.7141 C.ar    1  UNL1        0.0366
     23 C         141.3954  138.9824  165.8405 C.ar    1  UNL1        0.0001
     24 C         140.5162  139.7378  166.7924 C.ar    1  UNL1       -0.0078
     25 C         139.0266  139.7129  166.6179 C.ar    1  UNL1        0.0001
     26 C         138.4163  138.9326  165.4916 C.ar    1  UNL1        0.0366
     27 C         138.2715  138.0976  162.1533 C.3     1  UNL1        0.2525
     28 O         138.6853  137.3969  163.4133 O.3     1  UNL1       -0.4714
     29 C         139.0158  140.7040  158.4946 C.2     1  UNL1        0.2286
     30 O         137.5936  140.2290  158.4534 O.2     1  UNL1       -0.2746
     31 N         140.1329  139.7556  158.1742 N.am    1  UNL1       -0.2793
     32 C         139.9827  138.3113  157.7978 C.3     1  UNL1        0.0935
     33 C         141.3532  137.7480  157.5650 C.3     1  UNL1        0.0233
     34 C         142.3505  138.8441  157.7975 C.3     1  UNL1        0.0233
     35 C         141.5963  140.0848  158.1741 C.3     1  UNL1        0.0935
     36 C         138.9730  142.2957  157.4068 C.ar    1  UNL1       -0.0145
     37 C         140.0523  142.2494  156.3661 C.ar    1  UNL1       -0.0038
     38 C         139.7043  142.4178  154.9168 C.ar    1  UNL1       -0.0003
     39 C         138.2772  142.6323  154.5081 C.ar    1  UNL1       -0.0000
     40 C         137.1979  142.6786  155.5488 C.ar    1  UNL1       -0.0003
     41 C         137.5458  142.5103  156.9982 C.ar    1  UNL1       -0.0038
@<TRIPOS>BOND
     1    27    28    1
     2    28    21    1
     3    21    22   ar
     4    22    23   ar
     5    23    24   ar
     6    24    19    1
     7    19    20    1
     8    19    17    1
     9     9    17    1
    10     9    10    1
    11    10    11    1
    12    11    12    1
    13    12     1    1
    14     1     2    2
    15     1     3   am
    16     3     4    1
    17     4     5    1
    18     5     6    1
    19     6    29    1
    20    29    30    2
    21    29    31   am
    22    31    32    1
    23    32    33    1
    24    33    34    1
    25    34    35    1
    26     6    36    1
    27    36    37   ar
    28    37    38   ar
    29    38    39   ar
    30    39    40   ar
    31    40    41   ar
    32     6     7    1
    33     7     8    1
    34    12    13    1
    35    13    14    1
    36    13    15    1
    37    13    16    1
    38    24    25   ar
    39    25    26   ar
    40    26    21   ar
    41    16     9    1
    42     8     3    1
    43    35    31    1
    44    41    36   ar
    45    17    18    1
@<TRIPOS>MOLECULE
*****
 41 45 0 0 0
SMALL
GASTEIGER

@<TRIPOS>ATOM
      1 C         139.4216  144.2281  161.9324 C.2     1  UNL1        0.2251
      2 O         138.8726  145.6084  162.1412 O.2     1  UNL1       -0.2749
      3 N         140.0084  143.4718  163.0872 N.am    1  UNL1       -0.2795
      4 C         140.5573  142.0916  162.8784 C.3     1  UNL1        0.0942
      5 C         141.1442  141.3352  164.0333 C.3     1  UNL1        0.0343
      6 C         141.1822  141.9591  165.3968 C.3     1  UNL1        0.0911
      7 C         140.6332  143.3394  165.6056 C.3     1  UNL1        0.0343
      8 C         140.0464  144.0957  164.4508 C.3     1  UNL1        0.0942
      9 C         139.3077  142.3563  157.8418 C.3     1  UNL1        0.0542
     10 C         138.3666  141.8830  158.9096 C.3     1  UNL1        0.0162
     11 C         138.4045  142.5070  160.2732 C.3     1  UNL1        0.0104
     12 C         139.3836  143.6042  160.5689 C.3     1  UNL1        0.0768
     13 C         140.3248  144.0775  159.5011 C.3     1  UNL1        0.0095
     14 C         141.4100  144.8621  158.8253 C.3     1  UNL1        0.0005
     15 C         140.7396  144.9739  160.6299 C.3     1  UNL1        0.0005
     16 C         140.2868  143.4536  158.1375 C.3     1  UNL1        0.0162
     17 N         139.2697  141.7324  156.4782 N.3     1  UNL1       -0.2962
     18 H         138.3120  141.4162  156.3257 H       1  UNL1        0.1235
     19 C         140.1649  140.5719  156.1593 C.3     1  UNL1        0.0768
     20 C         140.0427  139.8713  154.8386 C.3     1  UNL1        0.0220
     21 C         143.2171  139.1922  159.1644 C.ar    1  UNL1        0.1387
     22 C         141.8450  138.5863  159.1567 C.ar    1  UNL1        0.0366
     23 C         140.8276  139.0462  158.1550 C.ar    1  UNL1        0.0001
     24 C         141.1823  140.1120  157.1610 C.ar    1  UNL1       -0.0078
     25 C         142.5544  140.7179  157.1686 C.ar    1  UNL1        0.0001
     26 C         143.5718  140.2580  158.1703 C.ar    1  UNL1        0.0366
     27 C         143.7959  137.9924  161.3950 C.3     1  UNL1        0.2525
     28 O         144.2345  138.7323  160.1661 O.3     1  UNL1       -0.4714
     29 C         141.8213  140.6359  165.6979 C.2     1  UNL1        0.2286
     30 O         141.1003  139.6303  166.5458 O.2     1  UNL1       -0.2746
     31 N         143.1815  140.3183  165.1511 N.am    1  UNL1       -0.2793
     32 C         143.9428  139.0439  165.3664 C.3     1  UNL1        0.0935
     33 C         145.2511  139.1573  164.6414 C.3     1  UNL1        0.0233
     34 C         145.2983  140.5018  163.9780 C.3     1  UNL1        0.0233
     35 C         144.0193  141.2194  164.2930 C.3     1  UNL1        0.0935
     36 C         141.4421  142.1235  166.8649 C.ar    1  UNL1       -0.0145
     37 C         140.2932  142.1939  167.8267 C.ar    1  UNL1       -0.0038
     38 C         140.5532  142.3583  169.2949 C.ar    1  UNL1       -0.0003
     39 C         141.9619  142.4523  169.8012 C.ar    1  UNL1       -0.0000
     40 C         143.1108  142.3819  168.8394 C.ar    1  UNL1       -0.0003
     41 C         142.8510  142.2175  167.3712 C.ar    1  UNL1       -0.0038
@<TRIPOS>BOND
     1    27    28    1
     2    28    21    1
     3    21    22   ar
     4    22    23   ar
     5    23    24   ar
     6    24    19    1
     7    19    20    1
     8    19    17    1
     9     9    17    1
    10     9    10    1
    11    10    11    1
    12    11    12    1
    13    12     1    1
    14     1     2    2
    15     1     3   am
    16     3     4    1
    17     4     5    1
    18     5     6    1
    19     6    29    1
    20    29    30    2
    21    29    31   am
    22    31    32    1
    23    32    33    1
    24    33    34    1
    25    34    35    1
    26     6    36    1
    27    36    37   ar
    28    37    38   ar
    29    38    39   ar
    30    39    40   ar
    31    40    41   ar
    32     6     7    1
    33     7     8    1
    34    12    13    1
    35    13    14    1
    36    13    15    1
    37    13    16    1
    38    24    25   ar
    39    25    26   ar
    40    26    21   ar
    41    16     9    1
    42     8     3    1
    43    35    31    1
    44    41    36   ar
    45    17    18    1
@<TRIPOS>MOLECULE
*****
 41 45 0 0 0
SMALL
GASTEIGER

@<TRIPOS>ATOM
      1 C         140.6388  144.3460  161.4949 C.2     1  UNL1        0.2251
      2 O         141.4595  145.4026  162.1734 O.2     1  UNL1       -0.2749
      3 N         140.3409  144.4541  160.0288 N.am    1  UNL1       -0.2795
      4 C         139.5202  143.3977  159.3504 C.3     1  UNL1        0.0942
      5 C         139.2223  143.5057  157.8842 C.3     1  UNL1        0.0343
      6 C         139.7451  144.6703  157.0965 C.3     1  UNL1        0.0911
      7 C         140.5658  145.7268  157.7750 C.3     1  UNL1        0.0343
      8 C         140.8637  145.6187  159.2411 C.3     1  UNL1        0.0942
      9 C         139.0704  140.8523  163.8580 C.3     1  UNL1        0.0542
     10 C         140.2941  140.6924  163.0054 C.3     1  UNL1        0.0162
     11 C         140.8169  141.8569  162.2177 C.3     1  UNL1        0.0104
     12 C         140.1160  143.1815  162.2826 C.3     1  UNL1        0.0768
     13 C         138.8922  143.3415  163.1352 C.3     1  UNL1        0.0095
     14 C         137.7071  143.9834  163.7936 C.3     1  UNL1        0.0005
     15 C         139.0034  144.7289  162.5762 C.3     1  UNL1        0.0005
     16 C         138.3694  142.1769  163.9229 C.3     1  UNL1        0.0162
     17 N         138.5476  139.6878  164.6457 N.3     1  UNL1       -0.2962
     18 H         137.5310  139.7111  164.5662 H       1  UNL1        0.1235
     19 C         138.8651  139.5675  166.1067 C.3     1  UNL1        0.0768
     20 C         138.0092  138.7110  166.9921 C.3     1  UNL1        0.0220
     21 C         142.3850  141.7759  167.8337 C.ar    1  UNL1        0.1387
     22 C         142.5772  140.4201  167.2215 C.ar    1  UNL1        0.0366
     23 C         141.4039  139.6840  166.6459 C.ar    1  UNL1        0.0001
     24 C         140.0384  140.3036  166.6824 C.ar    1  UNL1       -0.0078
     25 C         139.8462  141.6594  167.2946 C.ar    1  UNL1        0.0001
     26 C         141.0195  142.3956  167.8702 C.ar    1  UNL1        0.0366
     27 C         143.8907  142.3720  169.8654 C.3     1  UNL1        0.2525
     28 O         143.5584  142.5120  168.4094 O.3     1  UNL1       -0.4714
     29 C         139.0183  143.9288  156.0139 C.2     1  UNL1        0.2286
     30 O         137.7258  144.4661  155.4744 O.2     1  UNL1       -0.2746
     31 N         139.5839  142.6501  155.4708 N.am    1  UNL1       -0.2793
     32 C         138.9732  141.8031  154.3940 C.3     1  UNL1        0.0935
     33 C         139.8713  140.6233  154.1668 C.3     1  UNL1        0.0233
     34 C         141.0371  140.7413  155.1033 C.3     1  UNL1        0.0233
     35 C         140.8595  141.9938  155.9092 C.3     1  UNL1        0.0935
     36 C         140.0154  145.5773  155.9328 C.ar    1  UNL1       -0.0145
     37 C         139.2790  146.8782  155.8090 C.ar    1  UNL1       -0.0038
     38 C         139.5494  147.7853  154.6452 C.ar    1  UNL1       -0.0003
     39 C         140.5562  147.3915  153.6055 C.ar    1  UNL1       -0.0000
     40 C         141.2926  146.0906  153.7294 C.ar    1  UNL1       -0.0003
     41 C         141.0223  145.1835  154.8930 C.ar    1  UNL1       -0.0038
@<TRIPOS>BOND
     1    27    28    1
     2    28    21    1
     3    21    22   ar
     4    22    23   ar
     5    23    24   ar
     6    24    19    1
     7    19    20    1
     8    19    17    1
     9     9    17    1
    10     9    10    1
    11    10    11    1
    12    11    12    1
    13    12     1    1
    14     1     2    2
    15     1     3   am
    16     3     4    1
    17     4     5    1
    18     5     6    1
    19     6    29    1
    20    29    30    2
    21    29    31   am
    22    31    32    1
    23    32    33    1
    24    33    34    1
    25    34    35    1
    26     6    36    1
    27    36    37   ar
    28    37    38   ar
    29    38    39   ar
    30    39    40   ar
    31    40    41   ar
    32     6     7    1
    33     7     8    1
    34    12    13    1
    35    13    14    1
    36    13    15    1
    37    13    16    1
    38    24    25   ar
    39    25    26   ar
    40    26    21   ar
    41    16     9    1
    42     8     3    1
    43    35    31    1
    44    41    36   ar
    45    17    18    1
@<TRIPOS>MOLECULE
*****
 41 45 0 0 0
SMALL
GASTEIGER

@<TRIPOS>ATOM
      1 C         144.4952  141.7490  162.1287 C.2     1  UNL1        0.2251
      2 O         145.9924  141.8357  162.1624 O.2     1  UNL1       -0.2749
      3 N         143.7268  141.5472  163.4010 N.am    1  UNL1       -0.2795
      4 C         142.2297  141.4605  163.3672 C.3     1  UNL1        0.0942
      5 C         141.4612  141.2586  164.6395 C.3     1  UNL1        0.0343
      6 C         142.1899  141.1434  165.9456 C.3     1  UNL1        0.0911
      7 C         143.6871  141.2301  165.9793 C.3     1  UNL1        0.0343
      8 C         144.4555  141.4320  164.7070 C.3     1  UNL1        0.0942
      9 C         142.3092  142.0947  158.2106 C.3     1  UNL1        0.0542
     10 C         142.5756  143.3214  159.0315 C.3     1  UNL1        0.0162
     11 C         143.3042  143.2062  160.3376 C.3     1  UNL1        0.0104
     12 C         143.7665  141.8642  160.8227 C.3     1  UNL1        0.0768
     13 C         143.5002  140.6374  160.0017 C.3     1  UNL1        0.0095
     14 C         143.4850  139.1968  159.5839 C.3     1  UNL1        0.0005
     15 C         144.2236  140.0219  161.1626 C.3     1  UNL1        0.0005
     16 C         142.7715  140.7526  158.6956 C.3     1  UNL1        0.0162
     17 N         141.5805  142.2099  156.9045 N.3     1  UNL1       -0.2962
     18 H         141.7698  143.1448  156.5432 H       1  UNL1        0.1235
     19 C         140.0934  142.0198  156.8560 C.3     1  UNL1        0.0768
     20 C         139.3608  142.1652  155.5553 C.3     1  UNL1        0.0220
     21 C         137.8301  141.0130  160.6129 C.ar    1  UNL1        0.1387
     22 C         138.2212  142.4333  160.3307 C.ar    1  UNL1        0.0366
     23 C         138.9756  142.7689  159.0784 C.ar    1  UNL1        0.0001
     24 C         139.3390  141.6842  158.1083 C.ar    1  UNL1       -0.0078
     25 C         138.9480  140.2638  158.3905 C.ar    1  UNL1        0.0001
     26 C         138.1936  139.9282  159.6428 C.ar    1  UNL1        0.0366
     27 C         137.7865  140.6553  163.1858 C.3     1  UNL1        0.2525
     28 O         137.0757  140.6774  161.8652 O.3     1  UNL1       -0.4714
     29 C         140.7752  140.9994  166.4230 C.2     1  UNL1        0.2286
     30 O         140.1416  142.0924  167.2316 O.2     1  UNL1       -0.2746
     31 N         139.9942  139.7623  166.0918 N.am    1  UNL1       -0.2793
     32 C         138.5784  139.4785  166.4978 C.3     1  UNL1        0.0935
     33 C         138.2009  138.1326  165.9534 C.3     1  UNL1        0.0233
     34 C         139.3836  137.5848  165.2109 C.3     1  UNL1        0.0233
     35 C         140.4919  138.5919  165.2964 C.3     1  UNL1        0.0935
     36 C         142.4273  140.9782  167.4174 C.ar    1  UNL1       -0.0145
     37 C         142.8806  142.1478  168.2399 C.ar    1  UNL1       -0.0038
     38 C         143.1180  141.9825  169.7118 C.ar    1  UNL1       -0.0003
     39 C         142.9021  140.6478  170.3611 C.ar    1  UNL1       -0.0000
     40 C         142.4487  139.4782  169.5386 C.ar    1  UNL1       -0.0003
     41 C         142.2113  139.6433  168.0668 C.ar    1  UNL1       -0.0038
@<TRIPOS>BOND
     1    27    28    1
     2    28    21    1
     3    21    22   ar
     4    22    23   ar
     5    23    24   ar
     6    24    19    1
     7    19    20    1
     8    19    17    1
     9     9    17    1
    10     9    10    1
    11    10    11    1
    12    11    12    1
    13    12     1    1
    14     1     2    2
    15     1     3   am
    16     3     4    1
    17     4     5    1
    18     5     6    1
    19     6    29    1
    20    29    30    2
    21    29    31   am
    22    31    32    1
    23    32    33    1
    24    33    34    1
    25    34    35    1
    26     6    36    1
    27    36    37   ar
    28    37    38   ar
    29    38    39   ar
    30    39    40   ar
    31    40    41   ar
    32     6     7    1
    33     7     8    1
    34    12    13    1
    35    13    14    1
    36    13    15    1
    37    13    16    1
    38    24    25   ar
    39    25    26   ar
    40    26    21   ar
    41    16     9    1
    42     8     3    1
    43    35    31    1
    44    41    36   ar
    45    17    18    1
@<TRIPOS>MOLECULE
*****
 41 45 0 0 0
SMALL
GASTEIGER

@<TRIPOS>ATOM
      1 C         140.4043  145.2767  161.9919 C.2     1  UNL1        0.2251
      2 O         139.9323  146.6982  162.0732 O.2     1  UNL1       -0.2749
      3 N         140.6176  144.6326  160.6542 N.am    1  UNL1       -0.2795
      4 C         141.0896  143.2112  160.5729 C.3     1  UNL1        0.0942
      5 C         141.3029  142.5670  159.2351 C.3     1  UNL1        0.0343
      6 C         141.0443  143.3445  157.9786 C.3     1  UNL1        0.0911
      7 C         140.5724  144.7660  158.0599 C.3     1  UNL1        0.0343
      8 C         140.3590  145.4101  159.3977 C.3     1  UNL1        0.0942
      9 C         141.1801  142.9444  165.7613 C.3     1  UNL1        0.0542
     10 C         142.3299  143.4231  164.9255 C.3     1  UNL1        0.0162
     11 C         142.0713  144.2005  163.6690 C.3     1  UNL1        0.0104
     12 C         140.6629  144.4992  163.2484 C.3     1  UNL1        0.0768
     13 C         139.5129  144.0206  164.0842 C.3     1  UNL1        0.0095
     14 C         138.1032  143.7832  164.5385 C.3     1  UNL1        0.0005
     15 C         138.7648  144.7156  162.9856 C.3     1  UNL1        0.0005
     16 C         139.7715  143.2431  165.3407 C.3     1  UNL1        0.0162
     17 N         141.4387  142.1670  167.0178 N.3     1  UNL1       -0.2962
     18 H         142.2991  142.5374  167.4214 H       1  UNL1        0.1235
     19 C         141.5948  140.6763  166.9587 C.3     1  UNL1        0.0768
     20 C         142.5165  139.9803  167.9158 C.3     1  UNL1        0.0220
     21 C         139.2983  138.2925  163.9102 C.ar    1  UNL1        0.1387
     22 C         140.7357  138.6416  163.6615 C.ar    1  UNL1        0.0366
     23 C         141.5012  139.4362  164.6777 C.ar    1  UNL1        0.0001
     24 C         140.8293  139.8817  165.9426 C.ar    1  UNL1       -0.0078
     25 C         139.3919  139.5326  166.1913 C.ar    1  UNL1        0.0001
     26 C         138.6264  138.7380  165.1751 C.ar    1  UNL1        0.0366
     27 C         137.8425  138.1968  161.7605 C.3     1  UNL1        0.2525
     28 O         138.5328  137.4979  162.8941 O.3     1  UNL1       -0.4714
     29 C         141.4789  142.0350  157.3899 C.2     1  UNL1        0.2286
     30 O         140.4532  141.0237  156.9712 O.2     1  UNL1       -0.2746
     31 N         142.9391  141.7369  157.2200 N.am    1  UNL1       -0.2793
     32 C         143.5213  140.4776  156.6496 C.3     1  UNL1        0.0935
     33 C         145.0155  140.6081  156.6676 C.3     1  UNL1        0.0233
     34 C         145.3568  141.9480  157.2492 C.3     1  UNL1        0.0233
     35 C         144.0735  142.6456  157.5906 C.3     1  UNL1        0.0935
     36 C         140.9367  143.6671  156.5177 C.ar    1  UNL1       -0.0145
     37 C         139.7443  143.2054  155.7335 C.ar    1  UNL1       -0.0038
     38 C         139.6366  143.5281  154.2726 C.ar    1  UNL1       -0.0003
     39 C         140.7212  144.3125  153.5958 C.ar    1  UNL1       -0.0000
     40 C         141.9136  144.7742  154.3800 C.ar    1  UNL1       -0.0003
     41 C         142.0214  144.4516  155.8409 C.ar    1  UNL1       -0.0038
@<TRIPOS>BOND
     1    27    28    1
     2    28    21    1
     3    21    22   ar
     4    22    23   ar
     5    23    24   ar
     6    24    19    1
     7    19    20    1
     8    19    17    1
     9     9    17    1
    10     9    10    1
    11    10    11    1
    12    11    12    1
    13    12     1    1
    14     1     2    2
    15     1     3   am
    16     3     4    1
    17     4     5    1
    18     5     6    1
    19     6    29    1
    20    29    30    2
    21    29    31   am
    22    31    32    1
    23    32    33    1
    24    33    34    1
    25    34    35    1
    26     6    36    1
    27    36    37   ar
    28    37    38   ar
    29    38    39   ar
    30    39    40   ar
    31    40    41   ar
    32     6     7    1
    33     7     8    1
    34    12    13    1
    35    13    14    1
    36    13    15    1
    37    13    16    1
    38    24    25   ar
    39    25    26   ar
    40    26    21   ar
    41    16     9    1
    42     8     3    1
    43    35    31    1
    44    41    36   ar
    45    17    18    1
