@<TRIPOS>MOLECULE
*****
 35 39 0 0 0
SMALL
GASTEIGER

@<TRIPOS>ATOM
      1 N         137.7945  142.8505  163.2175 N.3     1  UNL1       -0.2723
      2 C         137.7161  141.6770  164.1485 C.3     1  UNL1        0.0735
      3 C         137.7699  140.2812  163.6020 C.3     1  UNL1        0.0331
      4 C         137.9021  140.0588  162.1244 C.3     1  UNL1        0.0570
      5 C         137.9805  141.2323  161.1934 C.3     1  UNL1        0.0331
      6 C         137.9267  142.6282  161.7400 C.3     1  UNL1        0.0735
      7 N         137.9559  138.6630  161.5779 N.3     1  UNL1       -0.2934
      8 H         137.3653  138.6493  160.7465 H       1  UNL1        0.1236
      9 C         139.2726  138.0621  161.1836 C.3     1  UNL1        0.1152
     10 C         140.4827  138.2773  162.0435 C.ar    1  UNL1        0.0782
     11 C         141.5247  139.2762  161.6355 C.ar    1  UNL1        0.0562
     12 C         142.7348  139.4912  162.4954 C.ar    1  UNL1        0.1752
     13 C         142.9029  138.7074  163.7632 C.ar    1  UNL1        0.1914
     14 C         141.8609  137.7085  164.1712 C.ar    1  UNL1        0.1384
     15 N         140.6508  137.4934  163.3113 N.ar    1  UNL1       -0.2434
     16 O         144.1131  138.9225  164.6231 O.3     1  UNL1       -0.4668
     17 C         145.1550  139.9214  164.2152 C.3     1  UNL1        0.2527
     18 C         144.9869  140.7053  162.9473 C.3     1  UNL1        0.2526
     19 O         143.7768  140.4902  162.0875 O.3     1  UNL1       -0.4683
     20 C         137.7407  144.2464  163.7640 C.3     1  UNL1        0.0769
     21 C         138.8454  144.7501  164.6449 C.3     1  UNL1        0.0460
     22 C         141.0749  142.0424  167.4641 C.ar    1  UNL1        0.2250
     23 C         142.4971  141.6646  167.1736 C.ar    1  UNL1        0.0593
     24 C         143.1762  142.1893  165.9434 C.ar    1  UNL1        0.0254
     25 C         142.4331  143.0919  165.0037 C.ar    1  UNL1        0.0989
     26 N         143.1122  143.6166  163.7735 N.ar    1  UNL1       -0.2416
     27 C         142.3691  144.5192  162.8337 C.ar    1  UNL1        0.1088
     28 C         140.9468  144.8970  163.1242 C.ar    1  UNL1        0.0851
     29 C         140.2677  144.3723  164.3544 C.ar    1  UNL1        0.0096
     30 C         141.0109  143.4697  165.2942 C.ar    1  UNL1        0.0987
     31 N         140.3317  142.9449  166.5244 N.ar    1  UNL1       -0.2104
     32 C         139.5922  140.2529  168.6257 C.3     1  UNL1        0.2542
     33 O         140.3957  141.5176  168.6943 O.3     1  UNL1       -0.4561
     34 C         140.2037  145.7996  162.1845 C.1     1  UNL1        0.1017
     35 N         139.4605  146.7022  161.2447 N.1     1  UNL1       -0.1908
@<TRIPOS>BOND
     1    32    33    1
     2    33    22    1
     3    22    23   ar
     4    23    24   ar
     5    24    25   ar
     6    25    26   ar
     7    26    27   ar
     8    27    28   ar
     9    28    34    1
    10    34    35    3
    11    28    29   ar
    12    29    21    1
    13    21    20    1
    14    20     1    1
    15     1     2    1
    16     2     3    1
    17     3     4    1
    18     4     7    1
    19     7     9    1
    20     9    10    1
    21    10    11   ar
    22    11    12   ar
    23    12    13   ar
    24    13    14   ar
    25    14    15   ar
    26    13    16    1
    27    16    17    1
    28    17    18    1
    29    18    19    1
    30     4     5    1
    31     5     6    1
    32    29    30   ar
    33    30    31   ar
    34    31    22   ar
    35    30    25   ar
    36     6     1    1
    37    15    10   ar
    38    19    12    1
    39     7     8    1
@<TRIPOS>MOLECULE
*****
 35 39 0 0 0
SMALL
GASTEIGER

@<TRIPOS>ATOM
      1 N         141.7956  138.1515  164.2851 N.3     1  UNL1       -0.2723
      2 C         141.9843  138.5374  162.8479 C.3     1  UNL1        0.0735
      3 C         143.2128  139.2886  162.4281 C.3     1  UNL1        0.0331
      4 C         144.2528  139.6541  163.4455 C.3     1  UNL1        0.0570
      5 C         144.0641  139.2682  164.8826 C.3     1  UNL1        0.0331
      6 C         142.8355  138.5169  165.3025 C.3     1  UNL1        0.0735
      7 N         145.4813  140.4053  163.0256 N.3     1  UNL1       -0.2934
      8 H         145.5790  140.2709  162.0193 H       1  UNL1        0.1236
      9 C         145.5807  141.8807  163.2772 C.3     1  UNL1        0.1152
     10 C         144.3633  142.7474  163.1477 C.ar    1  UNL1        0.0782
     11 C         143.8780  143.1610  161.7900 C.ar    1  UNL1        0.0562
     12 C         142.6605  144.0277  161.6606 C.ar    1  UNL1        0.1752
     13 C         141.9284  144.4807  162.8889 C.ar    1  UNL1        0.1914
     14 C         142.4137  144.0670  164.2467 C.ar    1  UNL1        0.1384
     15 N         143.6311  143.2004  164.3761 N.ar    1  UNL1       -0.2434
     16 O         140.7109  145.3473  162.7596 O.3     1  UNL1       -0.4668
     17 C         140.2256  145.7610  161.4018 C.3     1  UNL1        0.2527
     18 C         140.9578  145.3080  160.1735 C.3     1  UNL1        0.2526
     19 O         142.1752  144.4413  160.3029 O.3     1  UNL1       -0.4683
     20 C         140.5671  137.4002  164.7049 C.3     1  UNL1        0.0769
     21 C         139.3703  138.1458  165.2167 C.3     1  UNL1        0.0460
     22 C         140.8655  140.8909  168.4538 C.ar    1  UNL1        0.2250
     23 C         140.7761  142.3777  168.2768 C.ar    1  UNL1        0.0593
     24 C         140.1882  142.9495  167.0208 C.ar    1  UNL1        0.0254
     25 C         139.6898  142.0345  165.9418 C.ar    1  UNL1        0.0989
     26 N         139.1020  142.6063  164.6858 N.ar    1  UNL1       -0.2416
     27 C         138.6036  141.6913  163.6068 C.ar    1  UNL1        0.1088
     28 C         138.6930  140.2044  163.7838 C.ar    1  UNL1        0.0851
     29 C         139.2809  139.6326  165.0397 C.ar    1  UNL1        0.0096
     30 C         139.7793  140.5477  166.1188 C.ar    1  UNL1        0.0987
     31 N         140.3671  139.9759  167.3748 N.ar    1  UNL1       -0.2104
     32 C         142.4253  139.1794  169.6317 C.3     1  UNL1        0.2542
     33 O         141.4534  140.3191  169.7098 O.3     1  UNL1       -0.4561
     34 C         138.1946  139.2894  162.7048 C.1     1  UNL1        0.1017
     35 N         137.6962  138.3744  161.6257 N.1     1  UNL1       -0.1908
@<TRIPOS>BOND
     1    32    33    1
     2    33    22    1
     3    22    23   ar
     4    23    24   ar
     5    24    25   ar
     6    25    26   ar
     7    26    27   ar
     8    27    28   ar
     9    28    34    1
    10    34    35    3
    11    28    29   ar
    12    29    21    1
    13    21    20    1
    14    20     1    1
    15     1     2    1
    16     2     3    1
    17     3     4    1
    18     4     7    1
    19     7     9    1
    20     9    10    1
    21    10    11   ar
    22    11    12   ar
    23    12    13   ar
    24    13    14   ar
    25    14    15   ar
    26    13    16    1
    27    16    17    1
    28    17    18    1
    29    18    19    1
    30     4     5    1
    31     5     6    1
    32    29    30   ar
    33    30    31   ar
    34    31    22   ar
    35    30    25   ar
    36     6     1    1
    37    15    10   ar
    38    19    12    1
    39     7     8    1
@<TRIPOS>MOLECULE
*****
 35 39 0 0 0
SMALL
GASTEIGER

@<TRIPOS>ATOM
      1 N         138.0691  139.8973  162.0629 N.3     1  UNL1       -0.2723
      2 C         138.6018  140.7227  160.9293 C.3     1  UNL1        0.0735
      3 C         138.5603  142.2200  161.0076 C.3     1  UNL1        0.0331
      4 C         137.9862  142.8921  162.2196 C.3     1  UNL1        0.0570
      5 C         137.4535  142.0667  163.3532 C.3     1  UNL1        0.0331
      6 C         137.4950  140.5693  163.2749 C.3     1  UNL1        0.0735
      7 N         137.9447  144.3894  162.2979 N.3     1  UNL1       -0.2934
      8 H         137.1947  144.6297  162.9461 H       1  UNL1        0.1236
      9 C         139.1591  145.1513  162.7392 C.3     1  UNL1        0.1152
     10 C         140.3440  144.4178  163.2940 C.ar    1  UNL1        0.0782
     11 C         141.5423  144.1647  162.4279 C.ar    1  UNL1        0.0562
     12 C         142.7273  143.4312  162.9828 C.ar    1  UNL1        0.1752
     13 C         142.7140  142.9508  164.4037 C.ar    1  UNL1        0.1914
     14 C         141.5157  143.2040  165.2698 C.ar    1  UNL1        0.1384
     15 N         140.3308  143.9374  164.7150 N.ar    1  UNL1       -0.2434
     16 O         143.8989  142.2173  164.9586 O.3     1  UNL1       -0.4668
     17 C         145.0972  141.9641  164.0925 C.3     1  UNL1        0.2527
     18 C         145.1104  142.4445  162.6715 C.3     1  UNL1        0.2526
     19 O         143.9255  143.1780  162.1167 O.3     1  UNL1       -0.4683
     20 C         138.1106  138.4000  161.9846 C.3     1  UNL1        0.0769
     21 C         138.7879  137.6108  163.0657 C.3     1  UNL1        0.0460
     22 C         142.6135  137.7546  160.7005 C.ar    1  UNL1        0.2250
     23 C         143.8686  138.2758  161.3353 C.ar    1  UNL1        0.0593
     24 C         143.8485  138.7491  162.7585 C.ar    1  UNL1        0.0254
     25 C         142.5733  138.7012  163.5469 C.ar    1  UNL1        0.0989
     26 N         142.5533  139.1745  164.9701 N.ar    1  UNL1       -0.2416
     27 C         141.2781  139.1267  165.7585 C.ar    1  UNL1        0.1088
     28 C         140.0229  138.6054  165.1237 C.ar    1  UNL1        0.0851
     29 C         140.0430  138.1321  163.7005 C.ar    1  UNL1        0.0096
     30 C         141.3182  138.1800  162.9121 C.ar    1  UNL1        0.0987
     31 N         141.3383  137.7067  161.4889 N.ar    1  UNL1       -0.2104
     32 C         142.5698  138.2749  158.1554 C.3     1  UNL1        0.2542
     33 O         142.6335  137.2812  159.2772 O.3     1  UNL1       -0.4561
     34 C         138.7478  138.5575  165.9121 C.1     1  UNL1        0.1017
     35 N         137.4725  138.5097  166.7006 N.1     1  UNL1       -0.1908
@<TRIPOS>BOND
     1    32    33    1
     2    33    22    1
     3    22    23   ar
     4    23    24   ar
     5    24    25   ar
     6    25    26   ar
     7    26    27   ar
     8    27    28   ar
     9    28    34    1
    10    34    35    3
    11    28    29   ar
    12    29    21    1
    13    21    20    1
    14    20     1    1
    15     1     2    1
    16     2     3    1
    17     3     4    1
    18     4     7    1
    19     7     9    1
    20     9    10    1
    21    10    11   ar
    22    11    12   ar
    23    12    13   ar
    24    13    14   ar
    25    14    15   ar
    26    13    16    1
    27    16    17    1
    28    17    18    1
    29    18    19    1
    30     4     5    1
    31     5     6    1
    32    29    30   ar
    33    30    31   ar
    34    31    22   ar
    35    30    25   ar
    36     6     1    1
    37    15    10   ar
    38    19    12    1
    39     7     8    1
@<TRIPOS>MOLECULE
*****
 35 39 0 0 0
SMALL
GASTEIGER

@<TRIPOS>ATOM
      1 N         143.5591  139.0648  163.6272 N.3     1  UNL1       -0.2723
      2 C         143.1756  139.0439  162.1772 C.3     1  UNL1        0.0735
      3 C         141.8939  138.3924  161.7497 C.3     1  UNL1        0.0331
      4 C         140.9956  137.7618  162.7722 C.3     1  UNL1        0.0570
      5 C         141.3791  137.7828  164.2222 C.3     1  UNL1        0.0331
      6 C         142.6608  138.4343  164.6497 C.3     1  UNL1        0.0735
      7 N         139.7139  137.1104  162.3447 N.3     1  UNL1       -0.2934
      8 H         139.6649  136.2127  162.8265 H       1  UNL1        0.1236
      9 C         138.4047  137.8022  162.5840 C.3     1  UNL1        0.1152
     10 C         138.3004  139.2891  162.4158 C.ar    1  UNL1        0.0782
     11 C         138.0918  140.1667  163.6143 C.ar    1  UNL1        0.0562
     12 C         137.9875  141.6536  163.4460 C.ar    1  UNL1        0.1752
     13 C         138.0918  142.2629  162.0794 C.ar    1  UNL1        0.1914
     14 C         138.3004  141.3853  160.8809 C.ar    1  UNL1        0.1384
     15 N         138.4047  139.8985  161.0491 N.ar    1  UNL1       -0.2434
     16 O         137.9876  143.7498  161.9111 O.3     1  UNL1       -0.4668
     17 C         137.7790  144.6274  163.1096 C.3     1  UNL1        0.2527
     18 C         137.6746  144.0180  164.4763 C.3     1  UNL1        0.2526
     19 O         137.7789  142.5312  164.6445 O.3     1  UNL1       -0.4683
     20 C         144.8408  139.7163  164.0547 C.3     1  UNL1        0.0769
     21 C         144.8690  141.1834  164.3659 C.3     1  UNL1        0.0460
     22 C         142.2391  141.3508  168.0135 C.ar    1  UNL1        0.2250
     23 C         140.9687  142.1479  167.9862 C.ar    1  UNL1        0.0593
     24 C         140.5750  142.8892  166.7431 C.ar    1  UNL1        0.0254
     25 C         141.4516  142.8334  165.5272 C.ar    1  UNL1        0.0989
     26 N         141.0578  143.5746  164.2840 N.ar    1  UNL1       -0.2416
     27 C         141.9345  143.5188  163.0682 C.ar    1  UNL1        0.1088
     28 C         143.2049  142.7217  163.0954 C.ar    1  UNL1        0.0851
     29 C         143.5987  141.9805  164.3386 C.ar    1  UNL1        0.0096
     30 C         142.7220  142.0363  165.5545 C.ar    1  UNL1        0.0987
     31 N         143.1157  141.2950  166.7977 N.ar    1  UNL1       -0.2104
     32 C         141.6972  139.6030  169.8578 C.3     1  UNL1        0.2542
     33 O         142.6329  140.6096  169.2567 O.3     1  UNL1       -0.4561
     34 C         144.0815  142.6659  161.8796 C.1     1  UNL1        0.1017
     35 N         144.9582  142.6102  160.6636 N.1     1  UNL1       -0.1908
@<TRIPOS>BOND
     1    32    33    1
     2    33    22    1
     3    22    23   ar
     4    23    24   ar
     5    24    25   ar
     6    25    26   ar
     7    26    27   ar
     8    27    28   ar
     9    28    34    1
    10    34    35    3
    11    28    29   ar
    12    29    21    1
    13    21    20    1
    14    20     1    1
    15     1     2    1
    16     2     3    1
    17     3     4    1
    18     4     7    1
    19     7     9    1
    20     9    10    1
    21    10    11   ar
    22    11    12   ar
    23    12    13   ar
    24    13    14   ar
    25    14    15   ar
    26    13    16    1
    27    16    17    1
    28    17    18    1
    29    18    19    1
    30     4     5    1
    31     5     6    1
    32    29    30   ar
    33    30    31   ar
    34    31    22   ar
    35    30    25   ar
    36     6     1    1
    37    15    10   ar
    38    19    12    1
    39     7     8    1
@<TRIPOS>MOLECULE
*****
 35 39 0 0 0
SMALL
GASTEIGER

@<TRIPOS>ATOM
      1 N         142.9539  143.8187  161.6350 N.3     1  UNL1       -0.2723
      2 C         142.5848  144.6848  162.8027 C.3     1  UNL1        0.0735
      3 C         141.1721  145.1620  162.9657 C.3     1  UNL1        0.0331
      4 C         140.1284  144.7730  161.9609 C.3     1  UNL1        0.0570
      5 C         140.4975  143.9069  160.7932 C.3     1  UNL1        0.0331
      6 C         141.9102  143.4297  160.6302 C.3     1  UNL1        0.0735
      7 N         138.7158  145.2502  162.1239 N.3     1  UNL1       -0.2934
      8 H         138.2956  145.2495  161.1945 H       1  UNL1        0.1236
      9 C         137.7733  144.5096  163.0257 C.3     1  UNL1        0.1152
     10 C         137.9277  143.0302  163.2197 C.ar    1  UNL1        0.0782
     11 C         138.3799  142.4906  164.5442 C.ar    1  UNL1        0.0562
     12 C         138.5343  141.0112  164.7381 C.ar    1  UNL1        0.1752
     13 C         138.2365  140.0715  163.6076 C.ar    1  UNL1        0.1914
     14 C         137.7843  140.6111  162.2831 C.ar    1  UNL1        0.1384
     15 N         137.6299  142.0904  162.0891 N.ar    1  UNL1       -0.2434
     16 O         138.3909  138.5920  163.8015 O.3     1  UNL1       -0.4668
     17 C         138.8431  138.0524  165.1260 C.3     1  UNL1        0.2527
     18 C         139.1409  138.9923  166.2566 C.3     1  UNL1        0.2526
     19 O         138.9865  140.4716  166.0627 O.3     1  UNL1       -0.4683
     20 C         144.3665  143.3415  161.4720 C.3     1  UNL1        0.0769
     21 C         144.9324  142.3327  162.4271 C.3     1  UNL1        0.0460
     22 C         143.1373  138.8017  160.2918 C.ar    1  UNL1        0.2250
     23 C         142.2215  137.8677  161.0257 C.ar    1  UNL1        0.0593
     24 C         141.9039  138.1106  162.4715 C.ar    1  UNL1        0.0254
     25 C         142.5023  139.2876  163.1832 C.ar    1  UNL1        0.0989
     26 N         142.1847  139.5305  164.6290 N.ar    1  UNL1       -0.2416
     27 C         142.7831  140.7075  165.3408 C.ar    1  UNL1        0.1088
     28 C         143.6990  141.6416  164.6068 C.ar    1  UNL1        0.0851
     29 C         144.0165  141.3987  163.1611 C.ar    1  UNL1        0.0096
     30 C         143.4181  140.2216  162.4493 C.ar    1  UNL1        0.0987
     31 N         143.7357  139.9787  161.0036 N.ar    1  UNL1       -0.2104
     32 C         142.6620  137.5552  158.0624 C.3     1  UNL1        0.2542
     33 O         143.4549  138.5588  158.8460 O.3     1  UNL1       -0.4561
     34 C         144.2973  142.8186  165.3186 C.1     1  UNL1        0.1017
     35 N         144.8957  143.9956  166.0305 N.1     1  UNL1       -0.1908
@<TRIPOS>BOND
     1    32    33    1
     2    33    22    1
     3    22    23   ar
     4    23    24   ar
     5    24    25   ar
     6    25    26   ar
     7    26    27   ar
     8    27    28   ar
     9    28    34    1
    10    34    35    3
    11    28    29   ar
    12    29    21    1
    13    21    20    1
    14    20     1    1
    15     1     2    1
    16     2     3    1
    17     3     4    1
    18     4     7    1
    19     7     9    1
    20     9    10    1
    21    10    11   ar
    22    11    12   ar
    23    12    13   ar
    24    13    14   ar
    25    14    15   ar
    26    13    16    1
    27    16    17    1
    28    17    18    1
    29    18    19    1
    30     4     5    1
    31     5     6    1
    32    29    30   ar
    33    30    31   ar
    34    31    22   ar
    35    30    25   ar
    36     6     1    1
    37    15    10   ar
    38    19    12    1
    39     7     8    1
@<TRIPOS>MOLECULE
*****
 35 39 0 0 0
SMALL
GASTEIGER

@<TRIPOS>ATOM
      1 N         142.7373  144.4703  162.7398 N.3     1  UNL1       -0.2723
      2 C         141.9654  144.8606  163.9653 C.3     1  UNL1        0.0735
      3 C         140.4844  145.0828  163.8797 C.3     1  UNL1        0.0331
      4 C         139.7753  144.9146  162.5686 C.3     1  UNL1        0.0570
      5 C         140.5472  144.5243  161.3431 C.3     1  UNL1        0.0331
      6 C         142.0283  144.3021  161.4287 C.3     1  UNL1        0.0735
      7 N         138.2944  145.1368  162.4830 N.3     1  UNL1       -0.2934
      8 H         138.0616  145.1909  161.4914 H       1  UNL1        0.1236
      9 C         137.3505  144.1451  163.0959 C.3     1  UNL1        0.1152
     10 C         137.6629  142.6791  163.0404 C.ar    1  UNL1        0.0782
     11 C         137.9128  141.9170  164.3080 C.ar    1  UNL1        0.0562
     12 C         138.2252  140.4509  164.2525 C.ar    1  UNL1        0.1752
     13 C         138.2878  139.7469  162.9295 C.ar    1  UNL1        0.1914
     14 C         138.0380  140.5090  161.6619 C.ar    1  UNL1        0.1384
     15 N         137.7255  141.9750  161.7173 N.ar    1  UNL1       -0.2434
     16 O         138.6003  138.2808  162.8740 O.3     1  UNL1       -0.4668
     17 C         138.8501  137.5188  164.1416 C.3     1  UNL1        0.2527
     18 C         138.7875  138.2228  165.4647 C.3     1  UNL1        0.2526
     19 O         138.4751  139.6888  165.5201 O.3     1  UNL1       -0.4683
     20 C         144.2183  144.2481  162.8254 C.3     1  UNL1        0.0769
     21 C         144.7556  142.8778  163.1151 C.3     1  UNL1        0.0460
     22 C         143.2771  141.9275  167.2576 C.ar    1  UNL1        0.2250
     23 C         142.3332  140.7817  167.4726 C.ar    1  UNL1        0.0593
     24 C         141.8822  139.9527  166.3067 C.ar    1  UNL1        0.0254
     25 C         142.3750  140.2695  164.9259 C.ar    1  UNL1        0.0989
     26 N         141.9239  139.4405  163.7600 N.ar    1  UNL1       -0.2416
     27 C         142.4168  139.7572  162.3791 C.ar    1  UNL1        0.1088
     28 C         143.3607  140.9031  162.1641 C.ar    1  UNL1        0.0851
     29 C         143.8117  141.7321  163.3300 C.ar    1  UNL1        0.0096
     30 C         143.3189  141.4153  164.7109 C.ar    1  UNL1        0.0987
     31 N         143.7699  142.2443  165.8768 N.ar    1  UNL1       -0.2104
     32 C         143.1484  142.5137  169.7854 C.3     1  UNL1        0.2542
     33 O         143.7282  142.7565  168.4235 O.3     1  UNL1       -0.4561
     34 C         143.8535  141.2198  160.7833 C.1     1  UNL1        0.1017
     35 N         144.3463  141.5366  159.4024 N.1     1  UNL1       -0.1908
@<TRIPOS>BOND
     1    32    33    1
     2    33    22    1
     3    22    23   ar
     4    23    24   ar
     5    24    25   ar
     6    25    26   ar
     7    26    27   ar
     8    27    28   ar
     9    28    34    1
    10    34    35    3
    11    28    29   ar
    12    29    21    1
    13    21    20    1
    14    20     1    1
    15     1     2    1
    16     2     3    1
    17     3     4    1
    18     4     7    1
    19     7     9    1
    20     9    10    1
    21    10    11   ar
    22    11    12   ar
    23    12    13   ar
    24    13    14   ar
    25    14    15   ar
    26    13    16    1
    27    16    17    1
    28    17    18    1
    29    18    19    1
    30     4     5    1
    31     5     6    1
    32    29    30   ar
    33    30    31   ar
    34    31    22   ar
    35    30    25   ar
    36     6     1    1
    37    15    10   ar
    38    19    12    1
    39     7     8    1
@<TRIPOS>MOLECULE
*****
 35 39 0 0 0
SMALL
GASTEIGER

@<TRIPOS>ATOM
      1 N         142.4550  143.2996  165.1593 N.3     1  UNL1       -0.2723
      2 C         140.9842  143.5937  165.1737 C.3     1  UNL1        0.0735
      3 C         140.3863  144.4803  164.1218 C.3     1  UNL1        0.0331
      4 C         141.2593  145.0727  163.0554 C.3     1  UNL1        0.0570
      5 C         142.7301  144.7786  163.0410 C.3     1  UNL1        0.0331
      6 C         143.3280  143.8919  164.0930 C.3     1  UNL1        0.0735
      7 N         140.6614  145.9593  162.0035 N.3     1  UNL1       -0.2934
      8 H         141.3262  146.7161  161.8437 H       1  UNL1        0.1236
      9 C         140.3141  145.3965  160.6572 C.3     1  UNL1        0.1152
     10 C         139.9166  143.9561  160.5262 C.ar    1  UNL1        0.0782
     11 C         140.8577  142.9727  159.8960 C.ar    1  UNL1        0.0562
     12 C         140.4602  141.5322  159.7650 C.ar    1  UNL1        0.1752
     13 C         139.1215  141.0752  160.2642 C.ar    1  UNL1        0.1914
     14 C         138.1804  142.0587  160.8943 C.ar    1  UNL1        0.1384
     15 N         138.5779  143.4991  161.0253 N.ar    1  UNL1       -0.2434
     16 O         138.7240  139.6348  160.1332 O.3     1  UNL1       -0.4668
     17 C         139.6651  138.6513  159.5030 C.3     1  UNL1        0.2527
     18 C         141.0038  139.1084  159.0038 C.3     1  UNL1        0.2526
     19 O         141.4013  140.5488  159.1348 O.3     1  UNL1       -0.4683
     20 C         143.0529  142.4130  166.2112 C.3     1  UNL1        0.0769
     21 C         143.1458  140.9336  165.9811 C.3     1  UNL1        0.0460
     22 C         139.1797  139.6005  167.6373 C.ar    1  UNL1        0.2250
     23 C         138.1864  138.9164  166.7456 C.ar    1  UNL1        0.0593
     24 C         138.5150  138.6766  165.3019 C.ar    1  UNL1        0.0254
     25 C         139.8370  139.1209  164.7498 C.ar    1  UNL1        0.0989
     26 N         140.1657  138.8811  163.3060 N.ar    1  UNL1       -0.2416
     27 C         141.4877  139.3255  162.7539 C.ar    1  UNL1        0.1088
     28 C         142.4811  140.0097  163.6456 C.ar    1  UNL1        0.0851
     29 C         142.1524  140.2495  165.0894 C.ar    1  UNL1        0.0096
     30 C         140.8304  139.8051  165.6415 C.ar    1  UNL1        0.0987
     31 N         140.5017  140.0449  167.0852 N.ar    1  UNL1       -0.2104
     32 C         139.9408  140.1925  170.0498 C.3     1  UNL1        0.2542
     33 O         138.8511  139.8403  169.0811 O.3     1  UNL1       -0.4561
     34 C         143.8031  140.4540  163.0935 C.1     1  UNL1        0.1017
     35 N         145.1252  140.8984  162.5414 N.1     1  UNL1       -0.1908
@<TRIPOS>BOND
     1    32    33    1
     2    33    22    1
     3    22    23   ar
     4    23    24   ar
     5    24    25   ar
     6    25    26   ar
     7    26    27   ar
     8    27    28   ar
     9    28    34    1
    10    34    35    3
    11    28    29   ar
    12    29    21    1
    13    21    20    1
    14    20     1    1
    15     1     2    1
    16     2     3    1
    17     3     4    1
    18     4     7    1
    19     7     9    1
    20     9    10    1
    21    10    11   ar
    22    11    12   ar
    23    12    13   ar
    24    13    14   ar
    25    14    15   ar
    26    13    16    1
    27    16    17    1
    28    17    18    1
    29    18    19    1
    30     4     5    1
    31     5     6    1
    32    29    30   ar
    33    30    31   ar
    34    31    22   ar
    35    30    25   ar
    36     6     1    1
    37    15    10   ar
    38    19    12    1
    39     7     8    1
@<TRIPOS>MOLECULE
*****
 35 39 0 0 0
SMALL
GASTEIGER

@<TRIPOS>ATOM
      1 N         141.2508  144.9372  162.2913 N.3     1  UNL1       -0.2723
      2 C         141.9835  144.0493  161.3297 C.3     1  UNL1        0.0735
      3 C         143.2095  143.3097  161.7768 C.3     1  UNL1        0.0331
      4 C         143.7028  143.4581  163.1856 C.3     1  UNL1        0.0570
      5 C         142.9702  144.3461  164.1473 C.3     1  UNL1        0.0331
      6 C         141.7441  145.0857  163.7001 C.3     1  UNL1        0.0735
      7 N         144.9289  142.7186  163.6328 N.3     1  UNL1       -0.2934
      8 H         145.2253  143.1440  164.5112 H       1  UNL1        0.1236
      9 C         144.8680  141.2383  163.8673 C.3     1  UNL1        0.1152
     10 C         143.5861  140.6023  164.3168 C.ar    1  UNL1        0.0782
     11 C         142.7790  139.7808  163.3556 C.ar    1  UNL1        0.0562
     12 C         141.4971  139.1448  163.8051 C.ar    1  UNL1        0.1752
     13 C         141.0222  139.3301  165.2158 C.ar    1  UNL1        0.1914
     14 C         141.8292  140.1515  166.1770 C.ar    1  UNL1        0.1384
     15 N         143.1111  140.7876  165.7276 N.ar    1  UNL1       -0.2434
     16 O         139.7402  138.6940  165.6653 O.3     1  UNL1       -0.4668
     17 C         138.9332  137.8726  164.7041 C.3     1  UNL1        0.2527
     18 C         139.4081  137.6873  163.2933 C.3     1  UNL1        0.2526
     19 O         140.6900  138.3233  162.8439 O.3     1  UNL1       -0.4683
     20 C         140.0248  145.6767  161.8442 C.3     1  UNL1        0.0769
     21 C         138.6763  145.2785  162.3669 C.3     1  UNL1        0.0460
     22 C         138.4708  142.1929  159.0979 C.ar    1  UNL1        0.2250
     23 C         138.1914  140.7587  159.4368 C.ar    1  UNL1        0.0593
     24 C         137.9805  140.3530  160.8654 C.ar    1  UNL1        0.0254
     25 C         138.0490  141.3815  161.9551 C.ar    1  UNL1        0.0989
     26 N         137.8382  140.9758  163.3837 N.ar    1  UNL1       -0.2416
     27 C         137.9067  142.0043  164.4734 C.ar    1  UNL1        0.1088
     28 C         138.1861  143.4386  164.1345 C.ar    1  UNL1        0.0851
     29 C         138.3969  143.8443  162.7058 C.ar    1  UNL1        0.0096
     30 C         138.3284  142.8157  161.6161 C.ar    1  UNL1        0.0987
     31 N         138.5393  143.2214  160.1875 N.ar    1  UNL1       -0.2104
     32 C         137.5128  142.6818  156.7329 C.3     1  UNL1        0.2542
     33 O         138.6817  142.5986  157.6693 O.3     1  UNL1       -0.4561
     34 C         138.2546  144.4671  165.2241 C.1     1  UNL1        0.1017
     35 N         138.3231  145.4957  166.3139 N.1     1  UNL1       -0.1908
@<TRIPOS>BOND
     1    32    33    1
     2    33    22    1
     3    22    23   ar
     4    23    24   ar
     5    24    25   ar
     6    25    26   ar
     7    26    27   ar
     8    27    28   ar
     9    28    34    1
    10    34    35    3
    11    28    29   ar
    12    29    21    1
    13    21    20    1
    14    20     1    1
    15     1     2    1
    16     2     3    1
    17     3     4    1
    18     4     7    1
    19     7     9    1
    20     9    10    1
    21    10    11   ar
    22    11    12   ar
    23    12    13   ar
    24    13    14   ar
    25    14    15   ar
    26    13    16    1
    27    16    17    1
    28    17    18    1
    29    18    19    1
    30     4     5    1
    31     5     6    1
    32    29    30   ar
    33    30    31   ar
    34    31    22   ar
    35    30    25   ar
    36     6     1    1
    37    15    10   ar
    38    19    12    1
    39     7     8    1
@<TRIPOS>MOLECULE
*****
 35 39 0 0 0
SMALL
GASTEIGER

@<TRIPOS>ATOM
      1 N         143.9969  143.0618  162.9504 N.3     1  UNL1       -0.2723
      2 C         143.6058  143.9378  164.1035 C.3     1  UNL1        0.0735
      3 C         142.4905  144.9287  163.9481 C.3     1  UNL1        0.0331
      4 C         141.7662  145.0436  162.6396 C.3     1  UNL1        0.0570
      5 C         142.1574  144.1677  161.4864 C.3     1  UNL1        0.0331
      6 C         143.2728  143.1768  161.6418 C.3     1  UNL1        0.0735
      7 N         140.6509  146.0345  162.4842 N.3     1  UNL1       -0.2934
      8 H         140.8313  146.5480  161.6215 H       1  UNL1        0.1236
      9 C         139.2297  145.5595  162.4162 C.3     1  UNL1        0.1152
     10 C         138.9164  144.1033  162.5927 C.ar    1  UNL1        0.0782
     11 C         138.7012  143.2314  161.3913 C.ar    1  UNL1        0.0562
     12 C         138.3878  141.7752  161.5679 C.ar    1  UNL1        0.1752
     13 C         138.2896  141.1908  162.9459 C.ar    1  UNL1        0.1914
     14 C         138.5048  142.0628  164.1473 C.ar    1  UNL1        0.1384
     15 N         138.8182  143.5190  163.9708 N.ar    1  UNL1       -0.2434
     16 O         137.9763  139.7346  163.1225 O.3     1  UNL1       -0.4668
     17 C         137.7611  138.8627  161.9210 C.3     1  UNL1        0.2527
     18 C         137.8593  139.4470  160.5430 C.3     1  UNL1        0.2526
     19 O         138.1726  140.9032  160.3664 O.3     1  UNL1       -0.4683
     20 C         145.1123  142.0710  163.1057 C.3     1  UNL1        0.0769
     21 C         144.9225  140.8569  163.9660 C.3     1  UNL1        0.0460
     22 C         142.7404  141.7713  167.7938 C.ar    1  UNL1        0.2250
     23 C         141.3636  141.2215  168.0219 C.ar    1  UNL1        0.0593
     24 C         140.7141  140.3670  166.9741 C.ar    1  UNL1        0.0254
     25 C         141.4414  140.0621  165.6982 C.ar    1  UNL1        0.0989
     26 N         140.7919  139.2076  164.6504 N.ar    1  UNL1       -0.2416
     27 C         141.5193  138.9027  163.3745 C.ar    1  UNL1        0.1088
     28 C         142.8962  139.4525  163.1463 C.ar    1  UNL1        0.0851
     29 C         143.5456  140.3071  164.1941 C.ar    1  UNL1        0.0096
     30 C         142.8182  140.6119  165.4701 C.ar    1  UNL1        0.0987
     31 N         143.4677  141.4665  166.5179 N.ar    1  UNL1       -0.2104
     32 C         142.6534  142.9498  170.1076 C.3     1  UNL1        0.2542
     33 O         143.3898  142.6259  168.8416 O.3     1  UNL1       -0.4561
     34 C         143.6235  139.1477  161.8704 C.1     1  UNL1        0.1017
     35 N         144.3509  138.8429  160.5944 N.1     1  UNL1       -0.1908
@<TRIPOS>BOND
     1    32    33    1
     2    33    22    1
     3    22    23   ar
     4    23    24   ar
     5    24    25   ar
     6    25    26   ar
     7    26    27   ar
     8    27    28   ar
     9    28    34    1
    10    34    35    3
    11    28    29   ar
    12    29    21    1
    13    21    20    1
    14    20     1    1
    15     1     2    1
    16     2     3    1
    17     3     4    1
    18     4     7    1
    19     7     9    1
    20     9    10    1
    21    10    11   ar
    22    11    12   ar
    23    12    13   ar
    24    13    14   ar
    25    14    15   ar
    26    13    16    1
    27    16    17    1
    28    17    18    1
    29    18    19    1
    30     4     5    1
    31     5     6    1
    32    29    30   ar
    33    30    31   ar
    34    31    22   ar
    35    30    25   ar
    36     6     1    1
    37    15    10   ar
    38    19    12    1
    39     7     8    1
