@<TRIPOS>MOLECULE
*****
 31 33 0 0 0
SMALL
GASTEIGER

@<TRIPOS>ATOM
      1 C         141.5204  140.3855  167.3920 C.ar    1  UNL1        0.0555
      2 C         141.1288  141.1128  166.1401 C.ar    1  UNL1        0.0168
      3 C         141.7906  140.7736  164.8374 C.ar    1  UNL1        0.0505
      4 C         142.8441  139.7070  164.7868 C.ar    1  UNL1        0.0170
      5 C         143.2358  138.9797  166.0388 C.ar    1  UNL1        0.0307
      6 C         142.5739  139.3189  167.3414 C.ar    1  UNL1        0.1402
      7 F         142.9656  138.5916  168.5935 F       1  UNL1       -0.2044
      8 C         139.7790  139.8979  168.0616 C.3     1  UNL1        0.0638
      9 C         140.8586  140.7247  168.6948 C.3     1  UNL1        0.2513
     10 N         142.1680  141.4337  168.8755 N.2     1  UNL1       -0.0663
     11 C         142.4407  142.1947  170.1390 C.2     1  UNL1        0.3195
     12 N         143.7502  142.9037  170.3197 N.pl3   1  UNL1       -0.2480
     13 C         141.4039  142.2468  171.2218 C.3     1  UNL1        0.2611
     14 O         140.0944  141.5378  171.0410 O.3     1  UNL1       -0.3108
     15 C         139.8218  140.7768  169.7775 C.3     1  UNL1        0.3281
     16 F         138.5123  140.0678  169.5967 F       1  UNL1       -0.1989
     17 H         144.4306  142.8695  169.6091 H       1  UNL1        0.2882
     18 H         143.9292  143.4032  171.1490 H       1  UNL1        0.2882
     19 N         141.3990  141.5010  163.5854 N.am    1  UNL1       -0.2791
     20 C         141.9714  142.8568  163.2954 C.2     1  UNL1        0.2681
     21 O         142.9355  143.4853  164.2576 O.2     1  UNL1       -0.2681
     22 H         140.7662  141.0885  162.9539 H       1  UNL1        0.1552
     23 C         141.5798  143.5842  162.0434 C.ar    1  UNL1        0.1453
     24 N         142.1951  143.2014  160.7301 N.ar    1  UNL1       -0.2377
     25 C         141.8034  143.9288  159.4780 C.ar    1  UNL1        0.1093
     26 C         140.7966  145.0389  159.5394 C.ar    1  UNL1        0.0884
     27 C         140.1813  145.4217  160.8527 C.ar    1  UNL1        0.0249
     28 C         140.5729  144.6944  162.1048 C.ar    1  UNL1        0.0804
     29 CL        139.9577  145.0772  163.4181 Cl      1  UNL1       -0.0805
     30 C         140.4050  145.7663  158.2874 C.1     1  UNL1        0.1020
     31 N         140.0134  146.4937  157.0353 N.1     1  UNL1       -0.1908
@<TRIPOS>BOND
     1     9     8    1
     2     9     1    1
     3     1     2   ar
     4     2     3   ar
     5     3    19    1
     6    19    20   am
     7    20    21    2
     8    20    23    1
     9    23    24   ar
    10    24    25   ar
    11    25    26   ar
    12    26    30    1
    13    30    31    3
    14    26    27   ar
    15    27    28   ar
    16    28    29    1
    17     3     4   ar
    18     4     5   ar
    19     5     6   ar
    20     6     7    1
    21     9    10    1
    22    10    11    2
    23    11    12    1
    24    11    13    1
    25    13    14    1
    26    14    15    1
    27    15    16    1
    28    15     9    1
    29     6     1   ar
    30    28    23   ar
    31    19    22    1
    32    12    17    1
    33    12    18    1
@<TRIPOS>MOLECULE
*****
 31 33 0 0 0
SMALL
GASTEIGER

@<TRIPOS>ATOM
      1 C         140.1886  140.4490  167.7664 C.ar    1  UNL1        0.0555
      2 C         140.6887  140.4295  166.3524 C.ar    1  UNL1        0.0168
      3 C         139.8954  139.7346  165.2858 C.ar    1  UNL1        0.0505
      4 C         138.6020  139.0590  165.6332 C.ar    1  UNL1        0.0170
      5 C         138.1019  139.0785  167.0472 C.ar    1  UNL1        0.0307
      6 C         138.8952  139.7734  168.1138 C.ar    1  UNL1        0.1402
      7 F         138.3950  139.7929  169.5279 F       1  UNL1       -0.2044
      8 C         140.2270  142.3106  168.2680 C.3     1  UNL1        0.0638
      9 C         140.9819  141.1439  168.8331 C.3     1  UNL1        0.2513
     10 N         141.4613  139.7360  169.0276 N.2     1  UNL1       -0.0663
     11 C         142.4717  139.4282  170.0926 C.2     1  UNL1        0.3195
     12 N         142.9511  138.0202  170.2871 N.pl3   1  UNL1       -0.2480
     13 C         143.0028  140.5283  170.9630 C.3     1  UNL1        0.2611
     14 O         142.5235  141.9363  170.7685 O.3     1  UNL1       -0.3108
     15 C         141.5130  142.2441  169.7035 C.3     1  UNL1        0.3281
     16 F         141.0336  143.6520  169.5089 F       1  UNL1       -0.1989
     17 H         142.6025  137.2981  169.7158 H       1  UNL1        0.2882
     18 H         143.6143  137.8181  170.9861 H       1  UNL1        0.2882
     19 N         140.3956  139.7151  163.8717 N.am    1  UNL1       -0.2791
     20 C         141.1026  138.5025  163.3429 C.2     1  UNL1        0.2681
     21 O         141.3095  137.3093  164.2281 O.2     1  UNL1       -0.2681
     22 H         140.2598  140.4982  163.2907 H       1  UNL1        0.1552
     23 C         141.6027  138.4830  161.9289 C.ar    1  UNL1        0.1453
     24 N         140.6349  138.3308  160.7930 N.ar    1  UNL1       -0.2377
     25 C         141.1351  138.3113  159.3790 C.ar    1  UNL1        0.1093
     26 C         142.6030  138.4440  159.1008 C.ar    1  UNL1        0.0884
     27 C         143.5709  138.5962  160.2366 C.ar    1  UNL1        0.0249
     28 C         143.0707  138.6157  161.6506 C.ar    1  UNL1        0.0804
     29 CL        144.0386  138.7679  162.7865 Cl      1  UNL1       -0.0805
     30 C         143.1031  138.4245  157.6868 C.1     1  UNL1        0.1020
     31 N         143.6033  138.4050  156.2727 N.1     1  UNL1       -0.1908
@<TRIPOS>BOND
     1     9     8    1
     2     9     1    1
     3     1     2   ar
     4     2     3   ar
     5     3    19    1
     6    19    20   am
     7    20    21    2
     8    20    23    1
     9    23    24   ar
    10    24    25   ar
    11    25    26   ar
    12    26    30    1
    13    30    31    3
    14    26    27   ar
    15    27    28   ar
    16    28    29    1
    17     3     4   ar
    18     4     5   ar
    19     5     6   ar
    20     6     7    1
    21     9    10    1
    22    10    11    2
    23    11    12    1
    24    11    13    1
    25    13    14    1
    26    14    15    1
    27    15    16    1
    28    15     9    1
    29     6     1   ar
    30    28    23   ar
    31    19    22    1
    32    12    17    1
    33    12    18    1
@<TRIPOS>MOLECULE
*****
 31 33 0 0 0
SMALL
GASTEIGER

@<TRIPOS>ATOM
      1 C         142.1180  140.8982  167.6132 C.ar    1  UNL1        0.0555
      2 C         141.6711  141.6517  166.3957 C.ar    1  UNL1        0.0168
      3 C         141.7165  140.9943  165.0483 C.ar    1  UNL1        0.0505
      4 C         142.2088  139.5834  164.9183 C.ar    1  UNL1        0.0170
      5 C         142.6557  138.8298  166.1358 C.ar    1  UNL1        0.0307
      6 C         142.6104  139.4872  167.4833 C.ar    1  UNL1        0.1402
      7 F         143.0573  138.7337  168.7009 F       1  UNL1       -0.2044
      8 C         143.3898  142.0728  168.4629 C.3     1  UNL1        0.0638
      9 C         142.0727  141.5556  168.9608 C.3     1  UNL1        0.2513
     10 N         140.7714  140.8101  168.9908 N.2     1  UNL1       -0.0663
     11 C         139.8822  140.9016  170.1953 C.2     1  UNL1        0.3195
     12 N         138.5809  140.1561  170.2252 N.pl3   1  UNL1       -0.2480
     13 C         140.2943  141.7386  171.3699 C.3     1  UNL1        0.2611
     14 O         141.5956  142.4841  171.3399 O.3     1  UNL1       -0.3108
     15 C         142.4848  142.3926  170.1354 C.3     1  UNL1        0.3281
     16 F         143.7861  143.1380  170.1054 F       1  UNL1       -0.1989
     17 H         138.3105  139.6067  169.4543 H       1  UNL1        0.2882
     18 H         137.9973  140.2161  171.0158 H       1  UNL1        0.2882
     19 N         141.2695  141.7478  163.8307 N.am    1  UNL1       -0.2791
     20 C         142.1922  142.7345  163.1786 C.2     1  UNL1        0.2681
     21 O         143.5619  142.9676  163.7442 O.2     1  UNL1       -0.2681
     22 H         140.3706  141.5948  163.4595 H       1  UNL1        0.1552
     23 C         141.7453  143.4880  161.9611 C.ar    1  UNL1        0.1453
     24 N         142.1912  143.0448  160.5992 N.ar    1  UNL1       -0.2377
     25 C         141.7442  143.7984  159.3816 C.ar    1  UNL1        0.1093
     26 C         140.8515  144.9951  159.5260 C.ar    1  UNL1        0.0884
     27 C         140.4056  145.4383  160.8879 C.ar    1  UNL1        0.0249
     28 C         140.8525  144.6848  162.1054 C.ar    1  UNL1        0.0804
     29 CL        140.4067  145.1279  163.4673 Cl      1  UNL1       -0.0805
     30 C         140.4046  145.7486  158.3084 C.1     1  UNL1        0.1020
     31 N         139.9576  146.5022  157.0908 N.1     1  UNL1       -0.1908
@<TRIPOS>BOND
     1     9     8    1
     2     9     1    1
     3     1     2   ar
     4     2     3   ar
     5     3    19    1
     6    19    20   am
     7    20    21    2
     8    20    23    1
     9    23    24   ar
    10    24    25   ar
    11    25    26   ar
    12    26    30    1
    13    30    31    3
    14    26    27   ar
    15    27    28   ar
    16    28    29    1
    17     3     4   ar
    18     4     5   ar
    19     5     6   ar
    20     6     7    1
    21     9    10    1
    22    10    11    2
    23    11    12    1
    24    11    13    1
    25    13    14    1
    26    14    15    1
    27    15    16    1
    28    15     9    1
    29     6     1   ar
    30    28    23   ar
    31    19    22    1
    32    12    17    1
    33    12    18    1
@<TRIPOS>MOLECULE
*****
 31 33 0 0 0
SMALL
GASTEIGER

@<TRIPOS>ATOM
      1 C         140.2910  140.1270  167.5390 C.ar    1  UNL1        0.0555
      2 C         140.9216  139.8450  166.2076 C.ar    1  UNL1        0.0168
      3 C         140.1739  139.0530  165.1764 C.ar    1  UNL1        0.0505
      4 C         138.7956  138.5430  165.4765 C.ar    1  UNL1        0.0170
      5 C         138.1649  138.8250  166.8079 C.ar    1  UNL1        0.0307
      6 C         138.9126  139.6170  167.8392 C.ar    1  UNL1        0.1402
      7 F         138.2820  139.8991  169.1707 F       1  UNL1       -0.2044
      8 C         140.2921  142.0243  167.8840 C.3     1  UNL1        0.0638
      9 C         141.0387  140.9191  168.5704 C.3     1  UNL1        0.2513
     10 N         141.5255  139.5389  168.8987 N.2     1  UNL1       -0.0663
     11 C         142.5008  139.3345  170.0199 C.2     1  UNL1        0.3195
     12 N         142.9876  137.9541  170.3481 N.pl3   1  UNL1       -0.2480
     13 C         142.9892  140.5104  170.8128 C.3     1  UNL1        0.2611
     14 O         142.5023  141.8906  170.4845 O.3     1  UNL1       -0.3108
     15 C         141.5271  142.0950  169.3634 C.3     1  UNL1        0.3281
     16 F         141.0402  143.4753  169.0350 F       1  UNL1       -0.1989
     17 H         142.6671  137.1823  169.8277 H       1  UNL1        0.2882
     18 H         143.6277  137.8199  171.0840 H       1  UNL1        0.2882
     19 N         140.8045  138.7709  163.8448 N.am    1  UNL1       -0.2791
     20 C         140.6515  139.7512  162.7198 C.2     1  UNL1        0.2681
     21 O         139.8679  141.0135  162.9263 O.2     1  UNL1       -0.2681
     22 H         141.3189  137.9425  163.7094 H       1  UNL1        0.1552
     23 C         141.2821  139.4692  161.3884 C.ar    1  UNL1        0.1453
     24 N         140.4897  138.7876  160.3125 N.ar    1  UNL1       -0.2377
     25 C         141.1204  138.5056  158.9810 C.ar    1  UNL1        0.1093
     26 C         142.5433  138.9052  158.7254 C.ar    1  UNL1        0.0884
     27 C         143.3357  139.5869  159.8013 C.ar    1  UNL1        0.0249
     28 C         142.7052  139.8688  161.1327 C.ar    1  UNL1        0.0804
     29 CL        143.4975  140.5505  162.2086 Cl      1  UNL1       -0.0805
     30 C         143.1739  138.6232  157.3940 C.1     1  UNL1        0.1020
     31 N         143.8046  138.3412  156.0625 N.1     1  UNL1       -0.1908
@<TRIPOS>BOND
     1     9     8    1
     2     9     1    1
     3     1     2   ar
     4     2     3   ar
     5     3    19    1
     6    19    20   am
     7    20    21    2
     8    20    23    1
     9    23    24   ar
    10    24    25   ar
    11    25    26   ar
    12    26    30    1
    13    30    31    3
    14    26    27   ar
    15    27    28   ar
    16    28    29    1
    17     3     4   ar
    18     4     5   ar
    19     5     6   ar
    20     6     7    1
    21     9    10    1
    22    10    11    2
    23    11    12    1
    24    11    13    1
    25    13    14    1
    26    14    15    1
    27    15    16    1
    28    15     9    1
    29     6     1   ar
    30    28    23   ar
    31    19    22    1
    32    12    17    1
    33    12    18    1
@<TRIPOS>MOLECULE
*****
 31 33 0 0 0
SMALL
GASTEIGER

@<TRIPOS>ATOM
      1 C         141.5445  140.3017  167.4718 C.ar    1  UNL1        0.0555
      2 C         141.1947  140.9801  166.1806 C.ar    1  UNL1        0.0168
      3 C         141.8845  140.5774  164.9109 C.ar    1  UNL1        0.0505
      4 C         142.9241  139.4964  164.9325 C.ar    1  UNL1        0.0170
      5 C         143.2739  138.8179  166.2237 C.ar    1  UNL1        0.0307
      6 C         142.5841  139.2206  167.4934 C.ar    1  UNL1        0.1402
      7 F         142.9340  138.5421  168.7847 F       1  UNL1       -0.2044
      8 C         139.7781  139.8696  168.1136 C.3     1  UNL1        0.0638
      9 C         140.8547  140.7043  168.7415 C.3     1  UNL1        0.2513
     10 N         142.1708  141.3992  168.9285 N.2     1  UNL1       -0.0663
     11 C         142.4233  142.2068  170.1670 C.2     1  UNL1        0.3195
     12 N         143.7395  142.9017  170.3539 N.pl3   1  UNL1       -0.2480
     13 C         141.3596  142.3195  171.2186 C.3     1  UNL1        0.2611
     14 O         140.0435  141.6246  171.0317 O.3     1  UNL1       -0.3108
     15 C         139.7910  140.8170  169.7931 C.3     1  UNL1        0.3281
     16 F         138.4749  140.1221  169.6061 F       1  UNL1       -0.1989
     17 H         144.4376  142.8277  169.6637 H       1  UNL1        0.2882
     18 H         143.9052  143.4317  171.1668 H       1  UNL1        0.2882
     19 N         141.5347  141.2559  163.6196 N.am    1  UNL1       -0.2791
     20 C         140.5834  140.6013  162.6622 C.2     1  UNL1        0.2681
     21 O         139.9820  139.2683  162.9961 O.2     1  UNL1       -0.2681
     22 H         141.9294  142.1308  163.4005 H       1  UNL1        0.1552
     23 C         140.2336  141.2797  161.3709 C.ar    1  UNL1        0.1453
     24 N         141.2331  141.3264  160.2534 N.ar    1  UNL1       -0.2377
     25 C         140.8832  142.0048  158.9621 C.ar    1  UNL1        0.1093
     26 C         139.5339  142.6364  158.7884 C.ar    1  UNL1        0.0884
     27 C         138.5344  142.5898  159.9059 C.ar    1  UNL1        0.0249
     28 C         138.8842  141.9114  161.1971 C.ar    1  UNL1        0.0804
     29 CL        137.8847  141.8647  162.3146 Cl      1  UNL1       -0.0805
     30 C         139.1840  143.3148  157.4971 C.1     1  UNL1        0.1020
     31 N         138.8342  143.9932  156.2058 N.1     1  UNL1       -0.1908
@<TRIPOS>BOND
     1     9     8    1
     2     9     1    1
     3     1     2   ar
     4     2     3   ar
     5     3    19    1
     6    19    20   am
     7    20    21    2
     8    20    23    1
     9    23    24   ar
    10    24    25   ar
    11    25    26   ar
    12    26    30    1
    13    30    31    3
    14    26    27   ar
    15    27    28   ar
    16    28    29    1
    17     3     4   ar
    18     4     5   ar
    19     5     6   ar
    20     6     7    1
    21     9    10    1
    22    10    11    2
    23    11    12    1
    24    11    13    1
    25    13    14    1
    26    14    15    1
    27    15    16    1
    28    15     9    1
    29     6     1   ar
    30    28    23   ar
    31    19    22    1
    32    12    17    1
    33    12    18    1
@<TRIPOS>MOLECULE
*****
 31 33 0 0 0
SMALL
GASTEIGER

@<TRIPOS>ATOM
      1 C         140.4340  141.1528  167.5572 C.ar    1  UNL1        0.0555
      2 C         141.0431  141.5227  166.2374 C.ar    1  UNL1        0.0168
      3 C         140.5269  140.9024  164.9730 C.ar    1  UNL1        0.0505
      4 C         139.4016  139.9121  165.0285 C.ar    1  UNL1        0.0170
      5 C         138.7925  139.5422  166.3483 C.ar    1  UNL1        0.0307
      6 C         139.3086  140.1626  167.6127 C.ar    1  UNL1        0.1402
      7 F         138.6995  139.7927  168.9327 F       1  UNL1       -0.2044
      8 C         140.2464  142.9537  168.2208 C.3     1  UNL1        0.0638
      9 C         140.9501  141.7731  168.8217 C.3     1  UNL1        0.2513
     10 N         141.4746  140.3772  168.9834 N.2     1  UNL1       -0.0663
     11 C         142.2709  140.0115  170.2009 C.2     1  UNL1        0.3195
     12 N         142.7954  138.6155  170.3626 N.pl3   1  UNL1       -0.2480
     13 C         142.5426  141.0419  171.2567 C.3     1  UNL1        0.2611
     14 O         142.0181  142.4378  171.0949 O.3     1  UNL1       -0.3108
     15 C         141.2219  142.8035  169.8775 C.3     1  UNL1        0.3281
     16 F         140.6973  144.1994  169.7156 F       1  UNL1       -0.1989
     17 H         142.6171  137.9393  169.6697 H       1  UNL1        0.2882
     18 H         143.3180  138.3755  171.1617 H       1  UNL1        0.2882
     19 N         141.1361  141.2723  163.6530 N.am    1  UNL1       -0.2791
     20 C         142.4140  140.6244  163.2089 C.2     1  UNL1        0.2681
     21 O         143.0827  139.6066  164.0847 O.2     1  UNL1       -0.2681
     22 H         140.6971  141.9402  163.0782 H       1  UNL1        0.1552
     23 C         143.0231  140.9942  161.8890 C.ar    1  UNL1        0.1453
     24 N         142.6185  140.2611  160.6445 N.ar    1  UNL1       -0.2377
     25 C         143.2277  140.6310  159.3246 C.ar    1  UNL1        0.1093
     26 C         144.2415  141.7340  159.2492 C.ar    1  UNL1        0.0884
     27 C         144.6461  142.4671  160.4938 C.ar    1  UNL1        0.0249
     28 C         144.0369  142.0972  161.8136 C.ar    1  UNL1        0.0804
     29 CL        144.4416  142.8303  163.0582 Cl      1  UNL1       -0.0805
     30 C         144.8506  142.1038  157.9294 C.1     1  UNL1        0.1020
     31 N         145.4598  142.4737  156.6094 N.1     1  UNL1       -0.1908
@<TRIPOS>BOND
     1     9     8    1
     2     9     1    1
     3     1     2   ar
     4     2     3   ar
     5     3    19    1
     6    19    20   am
     7    20    21    2
     8    20    23    1
     9    23    24   ar
    10    24    25   ar
    11    25    26   ar
    12    26    30    1
    13    30    31    3
    14    26    27   ar
    15    27    28   ar
    16    28    29    1
    17     3     4   ar
    18     4     5   ar
    19     5     6   ar
    20     6     7    1
    21     9    10    1
    22    10    11    2
    23    11    12    1
    24    11    13    1
    25    13    14    1
    26    14    15    1
    27    15    16    1
    28    15     9    1
    29     6     1   ar
    30    28    23   ar
    31    19    22    1
    32    12    17    1
    33    12    18    1
@<TRIPOS>MOLECULE
*****
 31 33 0 0 0
SMALL
GASTEIGER

@<TRIPOS>ATOM
      1 C         140.3698  140.6120  166.5917 C.ar    1  UNL1        0.0555
      2 C         140.6856  141.2663  165.2795 C.ar    1  UNL1        0.0168
      3 C         139.6928  141.2123  164.1564 C.ar    1  UNL1        0.0505
      4 C         138.3841  140.5040  164.3456 C.ar    1  UNL1        0.0170
      5 C         138.0683  139.8497  165.6579 C.ar    1  UNL1        0.0307
      6 C         139.0611  139.9037  166.7810 C.ar    1  UNL1        0.1402
      7 F         138.7453  139.2494  168.0933 F       1  UNL1       -0.2044
      8 C         141.8186  139.4150  167.0240 C.3     1  UNL1        0.0638
      9 C         141.3626  140.6660  167.7149 C.3     1  UNL1        0.2513
     10 N         140.5619  141.8981  168.0157 N.2     1  UNL1       -0.0663
     11 C         140.9122  142.7498  169.1997 C.2     1  UNL1        0.3195
     12 N         140.1114  143.9820  169.5005 N.pl3   1  UNL1       -0.2480
     13 C         142.0635  142.3693  170.0829 C.3     1  UNL1        0.2611
     14 O         142.8642  141.1372  169.7821 O.3     1  UNL1       -0.3108
     15 C         142.5138  140.2855  168.5981 C.3     1  UNL1        0.3281
     16 F         143.3146  139.0533  168.2972 F       1  UNL1       -0.1989
     17 H         139.3559  144.2317  168.9208 H       1  UNL1        0.2882
     18 H         140.3414  144.5410  170.2776 H       1  UNL1        0.2882
     19 N         140.0086  141.8666  162.8440 N.am    1  UNL1       -0.2791
     20 C         139.2565  143.0921  162.4168 C.2     1  UNL1        0.2681
     21 O         138.1886  143.6633  163.3020 O.2     1  UNL1       -0.2681
     22 H         140.7094  141.4917  162.2631 H       1  UNL1        0.1552
     23 C         139.5722  143.7464  161.1045 C.ar    1  UNL1        0.1453
     24 N         139.1589  143.0902  159.8206 N.ar    1  UNL1       -0.2377
     25 C         139.4747  143.7445  158.5083 C.ar    1  UNL1        0.1093
     26 C         140.2038  145.0551  158.4799 C.ar    1  UNL1        0.0884
     27 C         140.6171  145.7114  159.7639 C.ar    1  UNL1        0.0249
     28 C         140.3013  145.0571  161.0761 C.ar    1  UNL1        0.0804
     29 CL        140.7147  145.7133  162.3601 Cl      1  UNL1       -0.0805
     30 C         140.5195  145.7094  157.1676 C.1     1  UNL1        0.1020
     31 N         140.8352  146.3637  155.8552 N.1     1  UNL1       -0.1908
@<TRIPOS>BOND
     1     9     8    1
     2     9     1    1
     3     1     2   ar
     4     2     3   ar
     5     3    19    1
     6    19    20   am
     7    20    21    2
     8    20    23    1
     9    23    24   ar
    10    24    25   ar
    11    25    26   ar
    12    26    30    1
    13    30    31    3
    14    26    27   ar
    15    27    28   ar
    16    28    29    1
    17     3     4   ar
    18     4     5   ar
    19     5     6   ar
    20     6     7    1
    21     9    10    1
    22    10    11    2
    23    11    12    1
    24    11    13    1
    25    13    14    1
    26    14    15    1
    27    15    16    1
    28    15     9    1
    29     6     1   ar
    30    28    23   ar
    31    19    22    1
    32    12    17    1
    33    12    18    1
@<TRIPOS>MOLECULE
*****
 31 33 0 0 0
SMALL
GASTEIGER

@<TRIPOS>ATOM
      1 C         142.1040  140.7167  166.3062 C.ar    1  UNL1        0.0555
      2 C         141.6680  141.4721  165.0860 C.ar    1  UNL1        0.0168
      3 C         142.0714  140.9926  163.7232 C.ar    1  UNL1        0.0505
      4 C         142.9109  139.7577  163.5806 C.ar    1  UNL1        0.0170
      5 C         143.3469  139.0023  164.8009 C.ar    1  UNL1        0.0307
      6 C         142.9435  139.4817  166.1637 C.ar    1  UNL1        0.1402
      7 F         143.3795  138.7263  167.3841 F       1  UNL1       -0.2044
      8 C         142.9750  141.9666  167.4886 C.3     1  UNL1        0.0638
      9 C         141.7006  141.1961  167.6692 C.3     1  UNL1        0.2513
     10 N         140.5665  140.2592  167.3764 N.2     1  UNL1       -0.0663
     11 C         139.4715  140.0692  168.3838 C.2     1  UNL1        0.3195
     12 N         138.3373  139.1322  168.0910 N.pl3   1  UNL1       -0.2480
     13 C         139.5107  140.8163  169.6840 C.3     1  UNL1        0.2611
     14 O         140.6448  141.7532  169.9767 O.3     1  UNL1       -0.3108
     15 C         141.7398  141.9432  168.9693 C.3     1  UNL1        0.3281
     16 F         142.8741  142.8801  169.2620 F       1  UNL1       -0.1989
     17 H         138.3116  138.6419  167.2377 H       1  UNL1        0.2882
     18 H         137.6186  139.0075  168.7522 H       1  UNL1        0.2882
     19 N         141.6354  141.7481  162.5028 N.am    1  UNL1       -0.2791
     20 C         142.3318  143.0202  162.1196 C.2     1  UNL1        0.2681
     21 O         143.4642  143.5368  162.9568 O.2     1  UNL1       -0.2681
     22 H         140.8922  141.4090  161.9533 H       1  UNL1        0.1552
     23 C         141.8958  143.7757  160.8993 C.ar    1  UNL1        0.1453
     24 N         142.5715  143.5286  159.5831 N.ar    1  UNL1       -0.2377
     25 C         142.1354  144.2841  158.3627 C.ar    1  UNL1        0.1093
     26 C         141.0238  145.2866  158.4587 C.ar    1  UNL1        0.0884
     27 C         140.3482  145.5337  159.7749 C.ar    1  UNL1        0.0249
     28 C         140.7841  144.7782  160.9952 C.ar    1  UNL1        0.0804
     29 CL        140.1085  145.0253  162.3114 Cl      1  UNL1       -0.0805
     30 C         140.5879  146.0421  157.2384 C.1     1  UNL1        0.1020
     31 N         140.1518  146.7976  156.0180 N.1     1  UNL1       -0.1908
@<TRIPOS>BOND
     1     9     8    1
     2     9     1    1
     3     1     2   ar
     4     2     3   ar
     5     3    19    1
     6    19    20   am
     7    20    21    2
     8    20    23    1
     9    23    24   ar
    10    24    25   ar
    11    25    26   ar
    12    26    30    1
    13    30    31    3
    14    26    27   ar
    15    27    28   ar
    16    28    29    1
    17     3     4   ar
    18     4     5   ar
    19     5     6   ar
    20     6     7    1
    21     9    10    1
    22    10    11    2
    23    11    12    1
    24    11    13    1
    25    13    14    1
    26    14    15    1
    27    15    16    1
    28    15     9    1
    29     6     1   ar
    30    28    23   ar
    31    19    22    1
    32    12    17    1
    33    12    18    1
@<TRIPOS>MOLECULE
*****
 31 33 0 0 0
SMALL
GASTEIGER

@<TRIPOS>ATOM
      1 C         139.7990  139.1834  164.8075 C.ar    1  UNL1        0.0555
      2 C         140.1016  140.1715  163.7203 C.ar    1  UNL1        0.0168
      3 C         139.6586  139.8979  162.3137 C.ar    1  UNL1        0.0505
      4 C         138.9129  138.6362  161.9942 C.ar    1  UNL1        0.0170
      5 C         138.6102  137.6481  163.0814 C.ar    1  UNL1        0.0307
      6 C         139.0533  137.9217  164.4880 C.ar    1  UNL1        0.1402
      7 F         138.7507  136.9336  165.5753 F       1  UNL1       -0.2044
      8 C         138.7913  139.8225  166.3224 C.3     1  UNL1        0.0638
      9 C         140.2421  139.4570  166.2143 C.3     1  UNL1        0.2513
     10 N         141.5389  138.9965  165.6177 N.2     1  UNL1       -0.0663
     11 C         142.7750  138.9364  166.4653 C.2     1  UNL1        0.3195
     12 N         144.0719  138.4758  165.8686 N.pl3   1  UNL1       -0.2480
     13 C         142.7142  139.3369  167.9096 C.3     1  UNL1        0.2611
     14 O         141.4173  139.7975  168.5062 O.3     1  UNL1       -0.3108
     15 C         140.1812  139.8575  167.6586 C.3     1  UNL1        0.3281
     16 F         138.8843  140.3181  168.2551 F       1  UNL1       -0.1989
     17 H         144.1118  138.2130  164.9207 H       1  UNL1        0.2882
     18 H         144.8832  138.4364  166.4250 H       1  UNL1        0.2882
     19 N         139.9612  140.8860  161.2264 N.am    1  UNL1       -0.2791
     20 C         138.9682  141.9589  160.8903 C.2     1  UNL1        0.2681
     21 O         137.6726  142.0437  161.6416 O.2     1  UNL1       -0.2681
     22 H         140.8115  140.8304  160.7333 H       1  UNL1        0.1552
     23 C         139.2708  142.9470  159.8031 C.ar    1  UNL1        0.1453
     24 N         139.8655  144.2807  160.1460 N.ar    1  UNL1       -0.2377
     25 C         140.1680  145.2688  159.0587 C.ar    1  UNL1        0.1093
     26 C         139.8759  144.9232  157.6286 C.ar    1  UNL1        0.0884
     27 C         139.2813  143.5895  157.2857 C.ar    1  UNL1        0.0249
     28 C         138.9787  142.6014  158.3729 C.ar    1  UNL1        0.0804
     29 CL        138.3840  141.2677  158.0301 Cl      1  UNL1       -0.0805
     30 C         140.1785  145.9113  156.5414 C.1     1  UNL1        0.1020
     31 N         140.4811  146.8994  155.4541 N.1     1  UNL1       -0.1908
@<TRIPOS>BOND
     1     9     8    1
     2     9     1    1
     3     1     2   ar
     4     2     3   ar
     5     3    19    1
     6    19    20   am
     7    20    21    2
     8    20    23    1
     9    23    24   ar
    10    24    25   ar
    11    25    26   ar
    12    26    30    1
    13    30    31    3
    14    26    27   ar
    15    27    28   ar
    16    28    29    1
    17     3     4   ar
    18     4     5   ar
    19     5     6   ar
    20     6     7    1
    21     9    10    1
    22    10    11    2
    23    11    12    1
    24    11    13    1
    25    13    14    1
    26    14    15    1
    27    15    16    1
    28    15     9    1
    29     6     1   ar
    30    28    23   ar
    31    19    22    1
    32    12    17    1
    33    12    18    1
