@<TRIPOS>MOLECULE
*****
 32 35 0 0 0
SMALL
GASTEIGER

@<TRIPOS>ATOM
      1 C         142.0472  138.0273  158.7109 C.ar    1  UNL1       -0.0047
      2 C         142.6891  137.6888  160.0236 C.ar    1  UNL1       -0.0014
      3 C         141.9531  137.9425  161.3058 C.ar    1  UNL1        0.0143
      4 C         140.5753  138.5346  161.2751 C.ar    1  UNL1        0.0501
      5 C         139.9334  138.8731  159.9624 C.ar    1  UNL1       -0.0087
      6 C         140.6694  138.6195  158.6802 C.ar    1  UNL1       -0.0057
      7 C         138.5556  139.4653  159.9317 C.3     1  UNL1        0.0294
      8 C         137.8196  139.7189  161.2139 C.3     1  UNL1        0.0266
      9 C         138.4614  139.3804  162.5267 C.3     1  UNL1        0.0988
     10 N         139.8393  138.7883  162.5574 N.am    1  UNL1       -0.2555
     11 C         140.4811  138.4498  163.8702 C.2     1  UNL1        0.2527
     12 O         141.8589  137.8576  163.9008 O.2     1  UNL1       -0.2696
     13 C         139.7451  138.7034  165.1524 C.ar    1  UNL1        0.0547
     14 C         138.5250  137.8983  165.4887 C.ar    1  UNL1        0.0046
     15 C         137.7891  138.1520  166.7709 C.ar    1  UNL1        0.0010
     16 C         138.2733  139.2108  167.7167 C.ar    1  UNL1        0.0114
     17 C         139.4933  140.0159  167.3804 C.ar    1  UNL1        0.0578
     18 CL        139.9775  141.0747  168.3262 Cl      1  UNL1       -0.0822
     19 C         140.2293  139.7622  166.0982 C.ar    1  UNL1        0.0159
     20 C         142.9304  138.8726  156.4183 C.3     1  UNL1        0.0262
     21 C         142.7832  137.7737  157.4286 C.3     1  UNL1        0.0944
     22 N         143.3720  136.4211  157.1568 N.am    1  UNL1       -0.2987
     23 C         142.5836  135.4000  156.3914 C.2     1  UNL1        0.2460
     24 O         141.2064  135.7314  155.8979 O.2     1  UNL1       -0.2701
     25 H         144.2759  136.2035  157.4807 H       1  UNL1        0.1500
     26 C         143.1724  134.0474  156.1196 C.ar    1  UNL1        0.0534
     27 C         142.7853  133.2963  154.8802 C.ar    1  UNL1        0.0054
     28 C         143.3741  131.9437  154.6083 C.ar    1  UNL1        0.0115
     29 C         144.3499  131.3423  155.5758 C.ar    1  UNL1        0.0577
     30 CL        144.9387  129.9897  155.3040 Cl      1  UNL1       -0.0822
     31 C         144.7370  132.0934  156.8152 C.ar    1  UNL1        0.0115
     32 C         144.1482  133.4460  157.0870 C.ar    1  UNL1        0.0054
@<TRIPOS>BOND
     1    21    20    1
     2    21    22    1
     3    22    23   am
     4    23    24    2
     5    23    26    1
     6    26    27   ar
     7    27    28   ar
     8    28    29   ar
     9    29    30    1
    10    29    31   ar
    11    31    32   ar
    12    21     1    1
    13     1     2   ar
    14     2     3   ar
    15     3     4   ar
    16     4     5   ar
    17     5     6   ar
    18     5     7    1
    19     7     8    1
    20     8     9    1
    21     9    10    1
    22    10    11   am
    23    11    12    2
    24    11    13    1
    25    13    14   ar
    26    14    15   ar
    27    15    16   ar
    28    16    17   ar
    29    17    18    1
    30    17    19   ar
    31    32    26   ar
    32     6     1   ar
    33    19    13   ar
    34    10     4    1
    35    22    25    1
@<TRIPOS>MOLECULE
*****
 32 35 0 0 0
SMALL
GASTEIGER

@<TRIPOS>ATOM
      1 C         143.1547  140.4304  160.5800 C.ar    1  UNL1       -0.0047
      2 C         141.9148  141.1590  161.0062 C.ar    1  UNL1       -0.0014
      3 C         141.5369  141.2112  162.4568 C.ar    1  UNL1        0.0143
      4 C         142.3988  140.5348  163.4813 C.ar    1  UNL1        0.0501
      5 C         143.6388  139.8062  163.0551 C.ar    1  UNL1       -0.0087
      6 C         144.0167  139.7540  161.6044 C.ar    1  UNL1       -0.0057
      7 C         144.5007  139.1299  164.0795 C.3     1  UNL1        0.0294
      8 C         144.1228  139.1821  165.5302 C.3     1  UNL1        0.0266
      9 C         142.8828  139.9107  165.9564 C.3     1  UNL1        0.0988
     10 N         142.0208  140.5871  164.9320 N.am    1  UNL1       -0.2555
     11 C         140.7809  141.3157  165.3581 C.2     1  UNL1        0.2527
     12 O         139.9189  141.9921  164.3337 O.2     1  UNL1       -0.2696
     13 C         140.4029  141.3679  166.8088 C.ar    1  UNL1        0.0547
     14 C         139.7007  140.2042  167.4433 C.ar    1  UNL1        0.0046
     15 C         139.3228  140.2565  168.8939 C.ar    1  UNL1        0.0010
     16 C         139.6470  141.4725  169.7101 C.ar    1  UNL1        0.0114
     17 C         140.3491  142.6363  169.0756 C.ar    1  UNL1        0.0578
     18 CL        140.6734  143.8523  169.8918 Cl      1  UNL1       -0.0822
     19 C         140.7271  142.5840  167.6250 C.ar    1  UNL1        0.0159
     20 C         143.9986  141.6209  158.4304 C.3     1  UNL1        0.0262
     21 C         143.5327  140.3781  159.1293 C.3     1  UNL1        0.0944
     22 N         143.4448  139.0831  158.3775 N.am    1  UNL1       -0.2987
     23 C         142.1144  138.5827  157.8986 C.2     1  UNL1        0.2460
     24 O         140.8717  139.3774  158.1713 O.2     1  UNL1       -0.2701
     25 H         144.2604  138.5615  158.1985 H       1  UNL1        0.1500
     26 C         142.0265  137.2877  157.1468 C.ar    1  UNL1        0.0534
     27 C         142.9910  136.1789  157.4476 C.ar    1  UNL1        0.0054
     28 C         142.9031  134.8838  156.6959 C.ar    1  UNL1        0.0115
     29 C         141.8506  134.6976  155.6433 C.ar    1  UNL1        0.0577
     30 CL        141.7627  133.4025  154.8916 Cl      1  UNL1       -0.0822
     31 C         140.8862  135.8063  155.3426 C.ar    1  UNL1        0.0115
     32 C         140.9741  137.1013  156.0944 C.ar    1  UNL1        0.0054
@<TRIPOS>BOND
     1    21    20    1
     2    21    22    1
     3    22    23   am
     4    23    24    2
     5    23    26    1
     6    26    27   ar
     7    27    28   ar
     8    28    29   ar
     9    29    30    1
    10    29    31   ar
    11    31    32   ar
    12    21     1    1
    13     1     2   ar
    14     2     3   ar
    15     3     4   ar
    16     4     5   ar
    17     5     6   ar
    18     5     7    1
    19     7     8    1
    20     8     9    1
    21     9    10    1
    22    10    11   am
    23    11    12    2
    24    11    13    1
    25    13    14   ar
    26    14    15   ar
    27    15    16   ar
    28    16    17   ar
    29    17    18    1
    30    17    19   ar
    31    32    26   ar
    32     6     1   ar
    33    19    13   ar
    34    10     4    1
    35    22    25    1
@<TRIPOS>MOLECULE
*****
 32 35 0 0 0
SMALL
GASTEIGER

@<TRIPOS>ATOM
      1 C         142.4560  139.4017  160.2479 C.ar    1  UNL1       -0.0047
      2 C         142.6747  140.8094  160.7171 C.ar    1  UNL1       -0.0014
      3 C         142.4948  141.1535  162.1660 C.ar    1  UNL1        0.0143
      4 C         142.0962  140.0898  163.1456 C.ar    1  UNL1        0.0501
      5 C         141.8774  138.6821  162.6764 C.ar    1  UNL1       -0.0087
      6 C         142.0573  138.3380  161.2275 C.ar    1  UNL1       -0.0057
      7 C         141.4788  137.6184  163.6560 C.3     1  UNL1        0.0294
      8 C         141.2989  137.9625  165.1048 C.3     1  UNL1        0.0266
      9 C         141.5177  139.3703  165.5741 C.3     1  UNL1        0.0988
     10 N         141.9163  140.4340  164.5945 N.am    1  UNL1       -0.2555
     11 C         142.1351  141.8418  165.0637 C.2     1  UNL1        0.2527
     12 O         142.5337  142.9055  164.0841 O.2     1  UNL1       -0.2696
     13 C         141.9552  142.1860  166.5126 C.ar    1  UNL1        0.0547
     14 C         140.6053  142.5924  167.0250 C.ar    1  UNL1        0.0046
     15 C         140.4254  142.9366  168.4738 C.ar    1  UNL1        0.0010
     16 C         141.5955  142.8742  169.4103 C.ar    1  UNL1        0.0114
     17 C         142.9454  142.4678  168.8980 C.ar    1  UNL1        0.0578
     18 CL        144.1155  142.4055  169.8345 Cl      1  UNL1       -0.0822
     19 C         143.1252  142.1236  167.4492 C.ar    1  UNL1        0.0159
     20 C         141.5846  138.2649  158.0803 C.3     1  UNL1        0.0262
     21 C         142.6358  139.0575  158.7990 C.3     1  UNL1        0.0944
     22 N         143.8670  139.5059  158.0689 N.am    1  UNL1       -0.2987
     23 C         143.8437  140.7734  157.2672 C.2     1  UNL1        0.2460
     24 O         142.5891  141.5926  157.1955 O.2     1  UNL1       -0.2701
     25 H         144.6904  138.9683  158.1159 H       1  UNL1        0.1500
     26 C         145.0749  141.2219  156.5371 C.ar    1  UNL1        0.0534
     27 C         146.0381  142.1627  157.1983 C.ar    1  UNL1        0.0054
     28 C         147.2693  142.6112  156.4682 C.ar    1  UNL1        0.0115
     29 C         147.5373  142.1187  155.0769 C.ar    1  UNL1        0.0577
     30 CL        148.7685  142.5672  154.3468 Cl      1  UNL1       -0.0822
     31 C         146.5742  141.1779  154.4157 C.ar    1  UNL1        0.0115
     32 C         145.3430  140.7295  155.1458 C.ar    1  UNL1        0.0054
@<TRIPOS>BOND
     1    21    20    1
     2    21    22    1
     3    22    23   am
     4    23    24    2
     5    23    26    1
     6    26    27   ar
     7    27    28   ar
     8    28    29   ar
     9    29    30    1
    10    29    31   ar
    11    31    32   ar
    12    21     1    1
    13     1     2   ar
    14     2     3   ar
    15     3     4   ar
    16     4     5   ar
    17     5     6   ar
    18     5     7    1
    19     7     8    1
    20     8     9    1
    21     9    10    1
    22    10    11   am
    23    11    12    2
    24    11    13    1
    25    13    14   ar
    26    14    15   ar
    27    15    16   ar
    28    16    17   ar
    29    17    18    1
    30    17    19   ar
    31    32    26   ar
    32     6     1   ar
    33    19    13   ar
    34    10     4    1
    35    22    25    1
@<TRIPOS>MOLECULE
*****
 32 35 0 0 0
SMALL
GASTEIGER

@<TRIPOS>ATOM
      1 C         140.9964  139.6329  160.2531 C.ar    1  UNL1       -0.0047
      2 C         141.9006  140.4402  161.1366 C.ar    1  UNL1       -0.0014
      3 C         141.7998  140.3145  162.6279 C.ar    1  UNL1        0.0143
      4 C         140.7948  139.3816  163.2357 C.ar    1  UNL1        0.0501
      5 C         139.8905  138.5743  162.3523 C.ar    1  UNL1       -0.0087
      6 C         139.9913  138.7000  160.8610 C.ar    1  UNL1       -0.0057
      7 C         138.8854  137.6414  162.9601 C.3     1  UNL1        0.0294
      8 C         138.7846  137.5157  164.4514 C.3     1  UNL1        0.0266
      9 C         139.6889  138.3230  165.3349 C.3     1  UNL1        0.0988
     10 N         140.6940  139.2560  164.7271 N.am    1  UNL1       -0.2555
     11 C         141.5982  140.0633  165.6106 C.2     1  UNL1        0.2527
     12 O         142.6033  140.9962  165.0027 O.2     1  UNL1       -0.2696
     13 C         141.4975  139.9376  167.1019 C.ar    1  UNL1        0.0547
     14 C         142.6400  139.3620  167.8850 C.ar    1  UNL1        0.0046
     15 C         142.5392  139.2364  169.3763 C.ar    1  UNL1        0.0010
     16 C         141.2958  139.6864  170.0845 C.ar    1  UNL1        0.0114
     17 C         140.1533  140.2620  169.3015 C.ar    1  UNL1        0.0578
     18 CL        138.9100  140.7121  170.0097 Cl      1  UNL1       -0.0822
     19 C         140.2541  140.3876  167.8102 C.ar    1  UNL1        0.0159
     20 C         141.2145  141.1137  158.1295 C.3     1  UNL1        0.0262
     21 C         141.0971  139.7586  158.7618 C.3     1  UNL1        0.0944
     22 N         141.0806  138.5290  157.9027 N.am    1  UNL1       -0.2987
     23 C         142.3579  138.0089  157.3129 C.2     1  UNL1        0.2460
     24 O         143.6519  138.7183  157.5822 O.2     1  UNL1       -0.2701
     25 H         140.2313  138.0634  157.7260 H       1  UNL1        0.1500
     26 C         142.3413  136.7794  156.4539 C.ar    1  UNL1        0.0534
     27 C         143.5867  135.9584  156.2953 C.ar    1  UNL1        0.0054
     28 C         143.5702  134.7289  155.4363 C.ar    1  UNL1        0.0115
     29 C         142.3082  134.3203  154.7358 C.ar    1  UNL1        0.0577
     30 CL        142.2917  133.0907  153.8768 Cl      1  UNL1       -0.0822
     31 C         141.0629  135.1412  154.8944 C.ar    1  UNL1        0.0115
     32 C         141.0795  136.3707  155.7535 C.ar    1  UNL1        0.0054
@<TRIPOS>BOND
     1    21    20    1
     2    21    22    1
     3    22    23   am
     4    23    24    2
     5    23    26    1
     6    26    27   ar
     7    27    28   ar
     8    28    29   ar
     9    29    30    1
    10    29    31   ar
    11    31    32   ar
    12    21     1    1
    13     1     2   ar
    14     2     3   ar
    15     3     4   ar
    16     4     5   ar
    17     5     6   ar
    18     5     7    1
    19     7     8    1
    20     8     9    1
    21     9    10    1
    22    10    11   am
    23    11    12    2
    24    11    13    1
    25    13    14   ar
    26    14    15   ar
    27    15    16   ar
    28    16    17   ar
    29    17    18    1
    30    17    19   ar
    31    32    26   ar
    32     6     1   ar
    33    19    13   ar
    34    10     4    1
    35    22    25    1
@<TRIPOS>MOLECULE
*****
 32 35 0 0 0
SMALL
GASTEIGER

@<TRIPOS>ATOM
      1 C         140.6209  139.2325  159.7200 C.ar    1  UNL1       -0.0047
      2 C         141.5895  140.1780  160.3663 C.ar    1  UNL1       -0.0014
      3 C         141.6441  140.2901  161.8611 C.ar    1  UNL1        0.0143
      4 C         140.7301  139.4566  162.7096 C.ar    1  UNL1        0.0501
      5 C         139.7615  138.5111  162.0633 C.ar    1  UNL1       -0.0087
      6 C         139.7069  138.3990  160.5685 C.ar    1  UNL1       -0.0057
      7 C         138.8474  137.6777  162.9118 C.3     1  UNL1        0.0294
      8 C         138.9020  137.7898  164.4066 C.3     1  UNL1        0.0266
      9 C         139.8707  138.7353  165.0529 C.3     1  UNL1        0.0988
     10 N         140.7847  139.5688  164.2044 N.am    1  UNL1       -0.2555
     11 C         141.7533  140.5143  164.8507 C.2     1  UNL1        0.2527
     12 O         142.6674  141.3477  164.0022 O.2     1  UNL1       -0.2696
     13 C         141.8080  140.6264  166.3456 C.ar    1  UNL1        0.0547
     14 C         142.5895  139.6261  167.1446 C.ar    1  UNL1        0.0046
     15 C         142.6441  139.7382  168.6394 C.ar    1  UNL1        0.0010
     16 C         141.9172  140.8507  169.3351 C.ar    1  UNL1        0.0114
     17 C         141.1356  141.8510  168.5360 C.ar    1  UNL1        0.0578
     18 CL        140.4087  142.9635  169.2317 Cl      1  UNL1       -0.0822
     19 C         141.0810  141.7389  167.0413 C.ar    1  UNL1        0.0159
     20 C         140.3060  140.3393  157.3906 C.3     1  UNL1        0.0262
     21 C         140.5663  139.1203  158.2252 C.3     1  UNL1        0.0944
     22 N         140.7719  137.7893  157.5649 N.am    1  UNL1       -0.2987
     23 C         142.1566  137.3329  157.2123 C.2     1  UNL1        0.2460
     24 O         143.3357  138.2077  157.5199 O.2     1  UNL1       -0.2701
     25 H         139.9981  137.2151  157.3630 H       1  UNL1        0.1500
     26 C         142.3622  136.0019  156.5520 C.ar    1  UNL1        0.0534
     27 C         141.3747  135.5077  155.5368 C.ar    1  UNL1        0.0054
     28 C         141.5803  134.1766  154.8766 C.ar    1  UNL1        0.0115
     29 C         142.7735  133.3397  155.2315 C.ar    1  UNL1        0.0577
     30 CL        142.9792  132.0086  154.5712 Cl      1  UNL1       -0.0822
     31 C         143.7610  133.8339  156.2466 C.ar    1  UNL1        0.0115
     32 C         143.5554  135.1650  156.9069 C.ar    1  UNL1        0.0054
@<TRIPOS>BOND
     1    21    20    1
     2    21    22    1
     3    22    23   am
     4    23    24    2
     5    23    26    1
     6    26    27   ar
     7    27    28   ar
     8    28    29   ar
     9    29    30    1
    10    29    31   ar
    11    31    32   ar
    12    21     1    1
    13     1     2   ar
    14     2     3   ar
    15     3     4   ar
    16     4     5   ar
    17     5     6   ar
    18     5     7    1
    19     7     8    1
    20     8     9    1
    21     9    10    1
    22    10    11   am
    23    11    12    2
    24    11    13    1
    25    13    14   ar
    26    14    15   ar
    27    15    16   ar
    28    16    17   ar
    29    17    18    1
    30    17    19   ar
    31    32    26   ar
    32     6     1   ar
    33    19    13   ar
    34    10     4    1
    35    22    25    1
@<TRIPOS>MOLECULE
*****
 32 35 0 0 0
SMALL
GASTEIGER

@<TRIPOS>ATOM
      1 C         142.9778  139.8166  161.1688 C.ar    1  UNL1       -0.0047
      2 C         142.0814  139.1672  162.1811 C.ar    1  UNL1       -0.0014
      3 C         142.0544  139.6732  163.5930 C.ar    1  UNL1        0.0143
      4 C         142.9237  140.8285  163.9924 C.ar    1  UNL1        0.0501
      5 C         143.8200  141.4779  162.9801 C.ar    1  UNL1       -0.0087
      6 C         143.8471  140.9719  161.5683 C.ar    1  UNL1       -0.0057
      7 C         144.6893  142.6332  163.3796 C.3     1  UNL1        0.0294
      8 C         144.6623  143.1391  164.7914 C.3     1  UNL1        0.0266
      9 C         143.7659  142.4897  165.8038 C.3     1  UNL1        0.0988
     10 N         142.8966  141.3344  165.4043 N.am    1  UNL1       -0.2555
     11 C         142.0003  140.6850  166.4167 C.2     1  UNL1        0.2527
     12 O         141.1310  139.5297  166.0172 O.2     1  UNL1       -0.2696
     13 C         141.9732  141.1909  167.8286 C.ar    1  UNL1        0.0547
     14 C         142.7435  140.4736  168.8972 C.ar    1  UNL1        0.0046
     15 C         142.7164  140.9795  170.3090 C.ar    1  UNL1        0.0010
     16 C         141.9191  142.2028  170.6522 C.ar    1  UNL1        0.0114
     17 C         141.1488  142.9202  169.5836 C.ar    1  UNL1        0.0578
     18 CL        140.3514  144.1434  169.9267 Cl      1  UNL1       -0.0822
     19 C         141.1759  142.4142  168.1718 C.ar    1  UNL1        0.0159
     20 C         141.9028  138.4247  159.2564 C.3     1  UNL1        0.0262
     21 C         143.0048  139.3107  159.7569 C.3     1  UNL1        0.0944
     22 N         144.1340  139.6908  158.8456 N.am    1  UNL1       -0.2987
     23 C         143.9809  140.8487  157.9044 C.2     1  UNL1        0.2460
     24 O         142.6986  141.6266  157.8746 O.2     1  UNL1       -0.2701
     25 H         144.9755  139.1803  158.8651 H       1  UNL1        0.1500
     26 C         145.1100  141.2288  156.9931 C.ar    1  UNL1        0.0534
     27 C         145.2643  140.5475  155.6656 C.ar    1  UNL1        0.0054
     28 C         146.3934  140.9276  154.7542 C.ar    1  UNL1        0.0115
     29 C         147.3683  141.9891  155.1703 C.ar    1  UNL1        0.0577
     30 CL        148.4974  142.3692  154.2590 Cl      1  UNL1       -0.0822
     31 C         147.2140  142.6703  156.4977 C.ar    1  UNL1        0.0115
     32 C         146.0848  142.2902  157.4091 C.ar    1  UNL1        0.0054
@<TRIPOS>BOND
     1    21    20    1
     2    21    22    1
     3    22    23   am
     4    23    24    2
     5    23    26    1
     6    26    27   ar
     7    27    28   ar
     8    28    29   ar
     9    29    30    1
    10    29    31   ar
    11    31    32   ar
    12    21     1    1
    13     1     2   ar
    14     2     3   ar
    15     3     4   ar
    16     4     5   ar
    17     5     6   ar
    18     5     7    1
    19     7     8    1
    20     8     9    1
    21     9    10    1
    22    10    11   am
    23    11    12    2
    24    11    13    1
    25    13    14   ar
    26    14    15   ar
    27    15    16   ar
    28    16    17   ar
    29    17    18    1
    30    17    19   ar
    31    32    26   ar
    32     6     1   ar
    33    19    13   ar
    34    10     4    1
    35    22    25    1
@<TRIPOS>MOLECULE
*****
 32 35 0 0 0
SMALL
GASTEIGER

@<TRIPOS>ATOM
      1 C         140.9360  141.0360  160.0885 C.ar    1  UNL1       -0.0047
      2 C         141.8777  140.5712  161.1595 C.ar    1  UNL1       -0.0014
      3 C         141.5034  140.7216  162.6042 C.ar    1  UNL1        0.0143
      4 C         140.1874  141.3369  162.9780 C.ar    1  UNL1        0.0501
      5 C         139.2457  141.8017  161.9070 C.ar    1  UNL1       -0.0087
      6 C         139.6200  141.6513  160.4623 C.ar    1  UNL1       -0.0057
      7 C         137.9298  142.4170  162.2807 C.3     1  UNL1        0.0294
      8 C         137.5555  142.5674  163.7254 C.3     1  UNL1        0.0266
      9 C         138.4972  142.1026  164.7965 C.3     1  UNL1        0.0988
     10 N         139.8132  141.4873  164.4228 N.am    1  UNL1       -0.2555
     11 C         140.7549  141.0225  165.4938 C.2     1  UNL1        0.2527
     12 O         142.0709  140.4072  165.1200 O.2     1  UNL1       -0.2696
     13 C         140.3807  141.1729  166.9386 C.ar    1  UNL1        0.0547
     14 C         139.6829  140.0537  167.6530 C.ar    1  UNL1        0.0046
     15 C         139.3087  140.2042  169.0978 C.ar    1  UNL1        0.0010
     16 C         139.6323  141.4738  169.8280 C.ar    1  UNL1        0.0114
     17 C         140.3301  142.5930  169.1136 C.ar    1  UNL1        0.0578
     18 CL        140.6536  143.8627  169.8438 Cl      1  UNL1       -0.0822
     19 C         140.7043  142.4426  167.6688 C.ar    1  UNL1        0.0159
     20 C         141.8852  142.0498  157.8928 C.3     1  UNL1        0.0262
     21 C         141.3102  140.8856  158.6437 C.3     1  UNL1        0.0944
     22 N         141.1094  139.5709  157.9499 N.am    1  UNL1       -0.2987
     23 C         142.2798  138.6651  157.7061 C.2     1  UNL1        0.2460
     24 O         143.6512  139.0739  158.1561 O.2     1  UNL1       -0.2701
     25 H         140.2094  139.3026  157.6546 H       1  UNL1        0.1500
     26 C         142.0791  137.3504  157.0124 C.ar    1  UNL1        0.0534
     27 C         140.9745  137.1924  156.0098 C.ar    1  UNL1        0.0054
     28 C         140.7737  135.8778  155.3160 C.ar    1  UNL1        0.0115
     29 C         141.6775  134.7211  155.6248 C.ar    1  UNL1        0.0577
     30 CL        141.4767  133.4064  154.9310 Cl      1  UNL1       -0.0822
     31 C         142.7820  134.8790  156.6273 C.ar    1  UNL1        0.0115
     32 C         142.9828  136.1937  157.3211 C.ar    1  UNL1        0.0054
@<TRIPOS>BOND
     1    21    20    1
     2    21    22    1
     3    22    23   am
     4    23    24    2
     5    23    26    1
     6    26    27   ar
     7    27    28   ar
     8    28    29   ar
     9    29    30    1
    10    29    31   ar
    11    31    32   ar
    12    21     1    1
    13     1     2   ar
    14     2     3   ar
    15     3     4   ar
    16     4     5   ar
    17     5     6   ar
    18     5     7    1
    19     7     8    1
    20     8     9    1
    21     9    10    1
    22    10    11   am
    23    11    12    2
    24    11    13    1
    25    13    14   ar
    26    14    15   ar
    27    15    16   ar
    28    16    17   ar
    29    17    18    1
    30    17    19   ar
    31    32    26   ar
    32     6     1   ar
    33    19    13   ar
    34    10     4    1
    35    22    25    1
@<TRIPOS>MOLECULE
*****
 32 35 0 0 0
SMALL
GASTEIGER

@<TRIPOS>ATOM
      1 C         143.6827  142.8520  162.8524 C.ar    1  UNL1       -0.0047
      2 C         143.8509  142.4154  161.4273 C.ar    1  UNL1       -0.0014
      3 C         142.9791  143.0002  160.3559 C.ar    1  UNL1        0.0143
      4 C         141.9391  144.0216  160.7097 C.ar    1  UNL1        0.0501
      5 C         141.7709  144.4583  162.1348 C.ar    1  UNL1       -0.0087
      6 C         142.6427  143.8734  163.2062 C.ar    1  UNL1       -0.0057
      7 C         140.7309  145.4797  162.4885 C.3     1  UNL1        0.0294
      8 C         139.8591  146.0645  161.4172 C.3     1  UNL1        0.0266
      9 C         140.0273  145.6279  159.9919 C.3     1  UNL1        0.0988
     10 N         141.0673  144.6065  159.6382 N.am    1  UNL1       -0.2555
     11 C         141.2354  144.1698  158.2131 C.2     1  UNL1        0.2527
     12 O         142.2754  143.1484  157.8593 O.2     1  UNL1       -0.2696
     13 C         140.3636  144.7547  157.1416 C.ar    1  UNL1        0.0547
     14 C         139.1388  144.0182  156.6863 C.ar    1  UNL1        0.0046
     15 C         138.2670  144.6030  155.6148 C.ar    1  UNL1        0.0010
     16 C         138.6201  145.9243  154.9988 C.ar    1  UNL1        0.0114
     17 C         139.8449  146.6608  155.4541 C.ar    1  UNL1        0.0578
     18 CL        140.1980  147.9820  154.8380 Cl      1  UNL1       -0.0822
     19 C         140.7167  146.0759  156.5255 C.ar    1  UNL1        0.0159
     20 C         145.9034  141.7125  163.5736 C.3     1  UNL1        0.0262
     21 C         144.5545  142.2672  163.9239 C.3     1  UNL1        0.0944
     22 N         144.0774  142.2371  165.3457 N.am    1  UNL1       -0.2987
     23 C         143.1474  141.1523  165.8019 C.2     1  UNL1        0.2460
     24 O         142.6944  140.0975  164.8363 O.2     1  UNL1       -0.2701
     25 H         144.3747  142.9294  165.9794 H       1  UNL1        0.1500
     26 C         142.6703  141.1223  167.2237 C.ar    1  UNL1        0.0534
     27 C         141.8531  139.9648  167.7162 C.ar    1  UNL1        0.0054
     28 C         141.3759  139.9347  169.1380 C.ar    1  UNL1        0.0115
     29 C         141.7160  141.0621  170.0672 C.ar    1  UNL1        0.0577
     30 CL        141.2389  141.0321  171.4890 Cl      1  UNL1       -0.0822
     31 C         142.5331  142.2195  169.5747 C.ar    1  UNL1        0.0115
     32 C         143.0103  142.2496  168.1529 C.ar    1  UNL1        0.0054
@<TRIPOS>BOND
     1    21    20    1
     2    21    22    1
     3    22    23   am
     4    23    24    2
     5    23    26    1
     6    26    27   ar
     7    27    28   ar
     8    28    29   ar
     9    29    30    1
    10    29    31   ar
    11    31    32   ar
    12    21     1    1
    13     1     2   ar
    14     2     3   ar
    15     3     4   ar
    16     4     5   ar
    17     5     6   ar
    18     5     7    1
    19     7     8    1
    20     8     9    1
    21     9    10    1
    22    10    11   am
    23    11    12    2
    24    11    13    1
    25    13    14   ar
    26    14    15   ar
    27    15    16   ar
    28    16    17   ar
    29    17    18    1
    30    17    19   ar
    31    32    26   ar
    32     6     1   ar
    33    19    13   ar
    34    10     4    1
    35    22    25    1
@<TRIPOS>MOLECULE
*****
 32 35 0 0 0
SMALL
GASTEIGER

@<TRIPOS>ATOM
      1 C         139.5239  139.4347  160.5185 C.ar    1  UNL1       -0.0047
      2 C         138.7572  140.4385  161.3276 C.ar    1  UNL1       -0.0014
      3 C         139.0097  140.5646  162.8007 C.ar    1  UNL1        0.0143
      4 C         140.0289  139.6869  163.4648 C.ar    1  UNL1        0.0501
      5 C         140.7955  138.6832  162.6558 C.ar    1  UNL1       -0.0087
      6 C         140.5430  138.5571  161.1826 C.ar    1  UNL1       -0.0057
      7 C         141.8147  137.8055  163.3198 C.3     1  UNL1        0.0294
      8 C         142.0672  137.9316  164.7930 C.3     1  UNL1        0.0266
      9 C         141.3005  138.9354  165.6022 C.3     1  UNL1        0.0988
     10 N         140.2814  139.8130  164.9381 N.am    1  UNL1       -0.2555
     11 C         139.5147  140.8168  165.7472 C.2     1  UNL1        0.2527
     12 O         138.4955  141.6945  165.0831 O.2     1  UNL1       -0.2696
     13 C         139.7672  140.9429  167.2205 C.ar    1  UNL1        0.0547
     14 C         139.0990  140.0025  168.1791 C.ar    1  UNL1        0.0046
     15 C         139.3515  140.1286  169.6523 C.ar    1  UNL1        0.0010
     16 C         140.2722  141.1952  170.1668 C.ar    1  UNL1        0.0114
     17 C         140.9403  142.1357  169.2081 C.ar    1  UNL1        0.0578
     18 CL        141.8610  143.2023  169.7227 Cl      1  UNL1       -0.0822
     19 C         140.6878  142.0095  167.7350 C.ar    1  UNL1        0.0159
     20 C         138.5325  140.3910  158.3156 C.3     1  UNL1        0.0262
     21 C         139.2714  139.3086  159.0452 C.3     1  UNL1        0.0944
     22 N         139.7579  138.1001  158.3017 N.am    1  UNL1       -0.2987
     23 C         141.0286  138.1692  157.5078 C.2     1  UNL1        0.2460
     24 O         141.8130  139.4468  157.4574 O.2     1  UNL1       -0.2701
     25 H         139.2431  137.2615  158.3348 H       1  UNL1        0.1500
     26 C         141.5151  136.9607  156.7643 C.ar    1  UNL1        0.0534
     27 C         140.7003  136.3937  155.6396 C.ar    1  UNL1        0.0054
     28 C         141.1868  135.1852  154.8961 C.ar    1  UNL1        0.0115
     29 C         142.4881  134.5436  155.2772 C.ar    1  UNL1        0.0577
     30 CL        142.9746  133.3351  154.5337 Cl      1  UNL1       -0.0822
     31 C         143.3028  135.1106  156.4018 C.ar    1  UNL1        0.0115
     32 C         142.8163  136.3191  157.1453 C.ar    1  UNL1        0.0054
@<TRIPOS>BOND
     1    21    20    1
     2    21    22    1
     3    22    23   am
     4    23    24    2
     5    23    26    1
     6    26    27   ar
     7    27    28   ar
     8    28    29   ar
     9    29    30    1
    10    29    31   ar
    11    31    32   ar
    12    21     1    1
    13     1     2   ar
    14     2     3   ar
    15     3     4   ar
    16     4     5   ar
    17     5     6   ar
    18     5     7    1
    19     7     8    1
    20     8     9    1
    21     9    10    1
    22    10    11   am
    23    11    12    2
    24    11    13    1
    25    13    14   ar
    26    14    15   ar
    27    15    16   ar
    28    16    17   ar
    29    17    18    1
    30    17    19   ar
    31    32    26   ar
    32     6     1   ar
    33    19    13   ar
    34    10     4    1
    35    22    25    1
