@<TRIPOS>MOLECULE
*****
 30 34 0 0 0
SMALL
GASTEIGER

@<TRIPOS>ATOM
      1 N         141.6549  142.1294  165.2171 N.ar    1  UNL1       -0.2753
      2 C         140.8707  141.1412  164.4055 C.ar    1  UNL1        0.1497
      3 N         141.0781  141.4640  162.9554 N.ar    1  UNL1       -0.2220
      4 C         141.9904  142.6517  162.8708 C.ar    1  UNL1        0.1487
      5 C         142.5426  143.4118  161.7015 C.ar    1  UNL1        0.1543
      6 N         143.4512  144.5832  161.9299 N.ar    1  UNL1       -0.2073
      7 C         143.8077  144.9944  163.3277 C.ar    1  UNL1        0.2015
      8 N         143.2555  144.2343  164.4970 N.ar    1  UNL1       -0.2045
      9 C         142.3469  143.0629  164.2685 C.ar    1  UNL1        0.1711
     10 C         140.0273  140.0260  164.9487 C.ar    1  UNL1        0.0451
     11 C         138.7625  140.3363  165.6929 C.ar    1  UNL1        0.0047
     12 C         137.9191  139.2211  166.2361 C.ar    1  UNL1        0.0115
     13 C         138.3406  137.7957  166.0351 C.ar    1  UNL1        0.0585
     14 CL        137.4972  136.6805  166.5783 Cl      1  UNL1       -0.0822
     15 C         139.6054  137.4854  165.2909 C.ar    1  UNL1        0.0229
     16 C         140.4488  138.6005  164.7477 C.ar    1  UNL1        0.0614
     17 CL        141.7137  138.2903  164.0035 Cl      1  UNL1       -0.0821
     18 CL        141.9686  142.3155  171.2060 Cl      1  UNL1       -0.0822
     19 C         141.8902  142.2689  169.7088 C.ar    1  UNL1        0.0578
     20 C         140.6936  142.8340  169.0025 C.ar    1  UNL1        0.0129
     21 C         140.6152  142.7875  167.5053 C.ar    1  UNL1        0.0185
     22 C         141.7333  142.1759  166.7143 C.ar    1  UNL1        0.0668
     23 C         142.9299  141.6108  167.4206 C.ar    1  UNL1        0.0185
     24 C         143.0083  141.6574  168.9178 C.ar    1  UNL1        0.0129
     25 N         142.1861  143.0006  160.3037 N.pl3   1  UNL1       -0.2919
     26 C         143.2209  142.3682  159.4209 C.3     1  UNL1        0.0922
     27 C         142.8644  141.9569  158.0231 C.3     1  UNL1        0.0215
     28 C         141.4730  142.1781  157.5081 C.3     1  UNL1        0.0035
     29 C         140.4382  142.8105  158.3909 C.3     1  UNL1        0.0215
     30 C         140.7947  143.2217  159.7886 C.3     1  UNL1        0.0922
@<TRIPOS>BOND
     1    18    19    1
     2    19    20   ar
     3    20    21   ar
     4    21    22   ar
     5    22     1    1
     6     1     2   ar
     7     2    10    1
     8    10    11   ar
     9    11    12   ar
    10    12    13   ar
    11    13    14    1
    12    13    15   ar
    13    15    16   ar
    14    16    17    1
    15     2     3   ar
    16     3     4   ar
    17     4     5   ar
    18     5    25    1
    19    25    26    1
    20    26    27    1
    21    27    28    1
    22    28    29    1
    23    29    30    1
    24     5     6   ar
    25     6     7   ar
    26     7     8   ar
    27     8     9   ar
    28    22    23   ar
    29    23    24   ar
    30    24    19   ar
    31     9     1   ar
    32    16    10   ar
    33     9     4   ar
    34    30    25    1
@<TRIPOS>MOLECULE
*****
 30 34 0 0 0
SMALL
GASTEIGER

@<TRIPOS>ATOM
      1 N         142.4917  140.8959  163.9505 N.ar    1  UNL1       -0.2753
      2 C         141.7236  142.0472  164.5289 C.ar    1  UNL1        0.1497
      3 N         141.6435  141.8515  166.0140 N.ar    1  UNL1       -0.2220
      4 C         142.3622  140.5793  166.3533 C.ar    1  UNL1        0.1487
      5 C         142.6070  139.8824  167.6588 C.ar    1  UNL1        0.1543
      6 N         143.3760  138.5949  167.6890 N.ar    1  UNL1       -0.2073
      7 C         143.9002  138.0043  166.4137 C.ar    1  UNL1        0.2015
      8 N         143.6554  138.7012  165.1082 N.ar    1  UNL1       -0.2045
      9 C         142.8864  139.9887  165.0780 C.ar    1  UNL1        0.1711
     10 C         141.1382  143.1929  163.7577 C.ar    1  UNL1        0.0451
     11 C         139.7604  143.0793  163.1759 C.ar    1  UNL1        0.0047
     12 C         139.1751  144.2250  162.4047 C.ar    1  UNL1        0.0115
     13 C         139.9677  145.4844  162.2154 C.ar    1  UNL1        0.0585
     14 CL        139.3824  146.6301  161.4441 Cl      1  UNL1       -0.0822
     15 C         141.3456  145.5980  162.7972 C.ar    1  UNL1        0.0229
     16 C         141.9308  144.4523  163.5684 C.ar    1  UNL1        0.0614
     17 CL        143.3087  144.5659  164.1503 Cl      1  UNL1       -0.0821
     18 CL        143.7624  140.0653  158.1457 Cl      1  UNL1       -0.0822
     19 C         143.4447  140.2730  159.5968 C.ar    1  UNL1        0.0578
     20 C         142.4451  139.3875  160.2800 C.ar    1  UNL1        0.0129
     21 C         142.1274  139.5952  161.7311 C.ar    1  UNL1        0.0185
     22 C         142.8094  140.6882  162.4993 C.ar    1  UNL1        0.0668
     23 C         143.8090  141.5737  161.8162 C.ar    1  UNL1        0.0185
     24 C         144.1267  141.3660  160.3650 C.ar    1  UNL1        0.0129
     25 N         142.0828  140.4730  168.9341 N.pl3   1  UNL1       -0.2919
     26 C         140.9044  139.8489  169.6209 C.3     1  UNL1        0.0922
     27 C         140.3802  140.4395  170.8963 C.3     1  UNL1        0.0215
     28 C         141.0344  141.6543  171.4847 C.3     1  UNL1        0.0035
     29 C         142.2129  142.2785  170.7978 C.3     1  UNL1        0.0215
     30 C         142.7371  141.6878  169.5225 C.3     1  UNL1        0.0922
@<TRIPOS>BOND
     1    18    19    1
     2    19    20   ar
     3    20    21   ar
     4    21    22   ar
     5    22     1    1
     6     1     2   ar
     7     2    10    1
     8    10    11   ar
     9    11    12   ar
    10    12    13   ar
    11    13    14    1
    12    13    15   ar
    13    15    16   ar
    14    16    17    1
    15     2     3   ar
    16     3     4   ar
    17     4     5   ar
    18     5    25    1
    19    25    26    1
    20    26    27    1
    21    27    28    1
    22    28    29    1
    23    29    30    1
    24     5     6   ar
    25     6     7   ar
    26     7     8   ar
    27     8     9   ar
    28    22    23   ar
    29    23    24   ar
    30    24    19   ar
    31     9     1   ar
    32    16    10   ar
    33     9     4   ar
    34    30    25    1
@<TRIPOS>MOLECULE
*****
 30 34 0 0 0
SMALL
GASTEIGER

@<TRIPOS>ATOM
      1 N         142.9191  139.9375  160.3956 N.ar    1  UNL1       -0.2753
      2 C         141.9773  138.7770  160.5240 C.ar    1  UNL1        0.1497
      3 N         141.9751  138.0354  159.2202 N.ar    1  UNL1       -0.2220
      4 C         142.9156  138.7376  158.2860 C.ar    1  UNL1        0.1487
      5 C         143.3161  138.4583  156.8677 C.ar    1  UNL1        0.1543
      6 N         144.2999  139.3546  156.1758 N.ar    1  UNL1       -0.2073
      7 C         144.8833  140.5301  156.9023 C.ar    1  UNL1        0.2015
      8 N         144.4828  140.8093  158.3206 N.ar    1  UNL1       -0.2045
      9 C         143.4990  139.9131  159.0125 C.ar    1  UNL1        0.1711
     10 C         141.1781  138.4207  161.7424 C.ar    1  UNL1        0.0451
     11 C         141.8230  137.6697  162.8692 C.ar    1  UNL1        0.0047
     12 C         141.0238  137.3135  164.0875 C.ar    1  UNL1        0.0115
     13 C         139.5796  137.7083  164.1789 C.ar    1  UNL1        0.0585
     14 CL        138.7803  137.3520  165.3973 Cl      1  UNL1       -0.0822
     15 C         138.9346  138.4594  163.0521 C.ar    1  UNL1        0.0229
     16 C         139.7339  138.8156  161.8338 C.ar    1  UNL1        0.0614
     17 CL        139.0889  139.5667  160.7068 Cl      1  UNL1       -0.0821
     18 CL        144.1505  143.9692  164.6652 Cl      1  UNL1       -0.0822
     19 C         143.8427  142.9613  163.5978 C.ar    1  UNL1        0.0578
     20 C         144.8288  141.8752  163.2849 C.ar    1  UNL1        0.0129
     21 C         144.5210  140.8673  162.2175 C.ar    1  UNL1        0.0185
     22 C         143.2270  140.9454  161.4630 C.ar    1  UNL1        0.0668
     23 C         142.2408  142.0314  161.7759 C.ar    1  UNL1        0.0185
     24 C         142.5486  143.0393  162.8433 C.ar    1  UNL1        0.0129
     25 N         142.7326  137.2827  156.1412 N.pl3   1  UNL1       -0.2919
     26 C         141.2631  137.2389  155.8436 C.3     1  UNL1        0.0922
     27 C         140.6797  136.0633  155.1172 C.3     1  UNL1        0.0215
     28 C         141.5659  134.9316  154.6882 C.3     1  UNL1        0.0035
     29 C         143.0355  134.9755  154.9858 C.3     1  UNL1        0.0215
     30 C         143.6188  136.1510  155.7123 C.3     1  UNL1        0.0922
@<TRIPOS>BOND
     1    18    19    1
     2    19    20   ar
     3    20    21   ar
     4    21    22   ar
     5    22     1    1
     6     1     2   ar
     7     2    10    1
     8    10    11   ar
     9    11    12   ar
    10    12    13   ar
    11    13    14    1
    12    13    15   ar
    13    15    16   ar
    14    16    17    1
    15     2     3   ar
    16     3     4   ar
    17     4     5   ar
    18     5    25    1
    19    25    26    1
    20    26    27    1
    21    27    28    1
    22    28    29    1
    23    29    30    1
    24     5     6   ar
    25     6     7   ar
    26     7     8   ar
    27     8     9   ar
    28    22    23   ar
    29    23    24   ar
    30    24    19   ar
    31     9     1   ar
    32    16    10   ar
    33     9     4   ar
    34    30    25    1
@<TRIPOS>MOLECULE
*****
 30 34 0 0 0
SMALL
GASTEIGER

@<TRIPOS>ATOM
      1 N         139.9522  141.5343  160.4589 N.ar    1  UNL1       -0.2753
      2 C         139.5089  142.9372  160.7513 C.ar    1  UNL1        0.1497
      3 N         139.3897  143.6672  159.4464 N.ar    1  UNL1       -0.2220
      4 C         139.7593  142.7154  158.3474 C.ar    1  UNL1        0.1487
      5 C         139.8242  142.8787  156.8577 C.ar    1  UNL1        0.1543
      6 N         140.2367  141.7240  155.9939 N.ar    1  UNL1       -0.2073
      7 C         140.5843  140.4059  156.6197 C.ar    1  UNL1        0.2015
      8 N         140.5194  140.2425  158.1093 N.ar    1  UNL1       -0.2045
      9 C         140.1069  141.3973  158.9732 C.ar    1  UNL1        0.1711
     10 C         139.2333  143.5096  162.1102 C.ar    1  UNL1        0.0451
     11 C         137.8636  143.3914  162.7101 C.ar    1  UNL1        0.0047
     12 C         137.5880  143.9637  164.0689 C.ar    1  UNL1        0.0115
     13 C         138.6821  144.6543  164.8278 C.ar    1  UNL1        0.0585
     14 CL        138.4065  145.2267  166.1867 Cl      1  UNL1       -0.0822
     15 C         140.0518  144.7726  164.2279 C.ar    1  UNL1        0.0229
     16 C         140.3274  144.2002  162.8691 C.ar    1  UNL1        0.0614
     17 CL        141.6971  144.3184  162.2692 Cl      1  UNL1       -0.0821
     18 CL        140.9341  137.2273  164.5191 Cl      1  UNL1       -0.0822
     19 C         140.6886  138.3040  163.5041 C.ar    1  UNL1        0.0578
     20 C         139.4924  138.2262  162.6024 C.ar    1  UNL1        0.0129
     21 C         139.2470  139.3029  161.5873 C.ar    1  UNL1        0.0185
     22 C         140.1977  140.4576  161.4739 C.ar    1  UNL1        0.0668
     23 C         141.3939  140.5355  162.3756 C.ar    1  UNL1        0.0185
     24 C         141.6393  139.4587  163.3907 C.ar    1  UNL1        0.0129
     25 N         139.4765  144.1969  156.2320 N.pl3   1  UNL1       -0.2919
     26 C         138.1584  144.3734  155.5382 C.3     1  UNL1        0.0922
     27 C         137.8107  145.6916  154.9124 C.3     1  UNL1        0.0215
     28 C         138.7812  146.8333  154.9804 C.3     1  UNL1        0.0035
     29 C         140.0994  146.6568  155.6743 C.3     1  UNL1        0.0215
     30 C         140.4470  145.3386  156.3000 C.3     1  UNL1        0.0922
@<TRIPOS>BOND
     1    18    19    1
     2    19    20   ar
     3    20    21   ar
     4    21    22   ar
     5    22     1    1
     6     1     2   ar
     7     2    10    1
     8    10    11   ar
     9    11    12   ar
    10    12    13   ar
    11    13    14    1
    12    13    15   ar
    13    15    16   ar
    14    16    17    1
    15     2     3   ar
    16     3     4   ar
    17     4     5   ar
    18     5    25    1
    19    25    26    1
    20    26    27    1
    21    27    28    1
    22    28    29    1
    23    29    30    1
    24     5     6   ar
    25     6     7   ar
    26     7     8   ar
    27     8     9   ar
    28    22    23   ar
    29    23    24   ar
    30    24    19   ar
    31     9     1   ar
    32    16    10   ar
    33     9     4   ar
    34    30    25    1
@<TRIPOS>MOLECULE
*****
 30 34 0 0 0
SMALL
GASTEIGER

@<TRIPOS>ATOM
      1 N         140.0720  140.1324  160.6655 N.ar    1  UNL1       -0.2753
      2 C         141.1381  139.1226  160.9719 C.ar    1  UNL1        0.1497
      3 N         141.4692  138.3979  159.7010 N.ar    1  UNL1       -0.2220
      4 C         140.6077  138.9598  158.6091 C.ar    1  UNL1        0.1487
      5 C         140.4980  138.6338  157.1491 C.ar    1  UNL1        0.1543
      6 N         139.5249  139.3798  156.2851 N.ar    1  UNL1       -0.2073
      7 C         138.6614  140.4517  156.8812 C.ar    1  UNL1        0.2015
      8 N         138.7710  140.7777  158.3412 N.ar    1  UNL1       -0.2045
      9 C         139.7442  140.0317  159.2052 C.ar    1  UNL1        0.1711
     10 C         141.7632  138.8802  162.3138 C.ar    1  UNL1        0.0451
     11 C         143.1162  139.4485  162.6245 C.ar    1  UNL1        0.0047
     12 C         143.7413  139.2060  163.9663 C.ar    1  UNL1        0.0115
     13 C         143.0135  138.3952  164.9973 C.ar    1  UNL1        0.0585
     14 CL        143.6387  138.1528  166.3391 Cl      1  UNL1       -0.0822
     15 C         141.6606  137.8269  164.6865 C.ar    1  UNL1        0.0229
     16 C         141.0354  138.0694  163.3448 C.ar    1  UNL1        0.0614
     17 CL        139.6825  137.5011  163.0339 Cl      1  UNL1       -0.0821
     18 CL        137.5596  143.9105  164.5915 Cl      1  UNL1       -0.0822
     19 C         138.1877  142.9660  163.6100 C.ar    1  UNL1        0.0578
     20 C         139.5773  143.2221  163.1065 C.ar    1  UNL1        0.0129
     21 C         140.2053  142.2776  162.1250 C.ar    1  UNL1        0.0185
     22 C         139.4439  141.0769  161.6470 C.ar    1  UNL1        0.0668
     23 C         138.0543  140.8208  162.1504 C.ar    1  UNL1        0.0185
     24 C         137.4262  141.7653  163.1319 C.ar    1  UNL1        0.0129
     25 N         141.3616  137.5619  156.5530 N.pl3   1  UNL1       -0.2919
     26 C         142.8545  137.7061  156.5692 C.3     1  UNL1        0.0922
     27 C         143.7181  136.6341  155.9731 C.3     1  UNL1        0.0215
     28 C         143.0886  135.4179  155.3610 C.3     1  UNL1        0.0035
     29 C         141.5956  135.2738  155.3448 C.3     1  UNL1        0.0215
     30 C         140.7321  136.3457  155.9409 C.3     1  UNL1        0.0922
@<TRIPOS>BOND
     1    18    19    1
     2    19    20   ar
     3    20    21   ar
     4    21    22   ar
     5    22     1    1
     6     1     2   ar
     7     2    10    1
     8    10    11   ar
     9    11    12   ar
    10    12    13   ar
    11    13    14    1
    12    13    15   ar
    13    15    16   ar
    14    16    17    1
    15     2     3   ar
    16     3     4   ar
    17     4     5   ar
    18     5    25    1
    19    25    26    1
    20    26    27    1
    21    27    28    1
    22    28    29    1
    23    29    30    1
    24     5     6   ar
    25     6     7   ar
    26     7     8   ar
    27     8     9   ar
    28    22    23   ar
    29    23    24   ar
    30    24    19   ar
    31     9     1   ar
    32    16    10   ar
    33     9     4   ar
    34    30    25    1
@<TRIPOS>MOLECULE
*****
 30 34 0 0 0
SMALL
GASTEIGER

@<TRIPOS>ATOM
      1 N         139.5197  142.5587  160.2153 N.ar    1  UNL1       -0.2753
      2 C         140.5063  143.6884  160.1959 C.ar    1  UNL1        0.1497
      3 N         140.4364  144.3417  158.8475 N.ar    1  UNL1       -0.2220
      4 C         139.4066  143.6157  158.0335 C.ar    1  UNL1        0.1487
      5 C         138.9117  143.8157  156.6317 C.ar    1  UNL1        0.1543
      6 N         137.8501  142.9138  156.0753 N.ar    1  UNL1       -0.2073
      7 C         137.2836  141.8119  156.9207 C.ar    1  UNL1        0.2015
      8 N         137.7785  141.6119  158.3225 N.ar    1  UNL1       -0.2045
      9 C         138.8401  142.5138  158.8789 C.ar    1  UNL1        0.1711
     10 C         141.4050  144.0937  161.3265 C.ar    1  UNL1        0.0451
     11 C         142.8321  143.6328  161.3524 C.ar    1  UNL1        0.0047
     12 C         143.7307  144.0381  162.4830 C.ar    1  UNL1        0.0115
     13 C         143.2022  144.9042  163.5877 C.ar    1  UNL1        0.0585
     14 CL        144.1008  145.3095  164.7183 Cl      1  UNL1       -0.0822
     15 C         141.7750  145.3651  163.5618 C.ar    1  UNL1        0.0229
     16 C         140.8764  144.9598  162.4313 C.ar    1  UNL1        0.0614
     17 CL        139.4491  145.4207  162.4054 Cl      1  UNL1       -0.0821
     18 CL        138.4751  138.8674  164.8287 Cl      1  UNL1       -0.0822
     19 C         138.7363  139.7902  163.6754 C.ar    1  UNL1        0.0578
     20 C         137.7288  140.8406  163.3122 C.ar    1  UNL1        0.0129
     21 C         137.9900  141.7634  162.1589 C.ar    1  UNL1        0.0185
     22 C         139.2585  141.6359  161.3687 C.ar    1  UNL1        0.0668
     23 C         140.2660  140.5856  161.7318 C.ar    1  UNL1        0.0185
     24 C         140.0048  139.6628  162.8852 C.ar    1  UNL1        0.0129
     25 N         139.4783  144.9178  155.7863 N.pl3   1  UNL1       -0.2919
     26 C         140.6730  144.6578  154.9175 C.3     1  UNL1        0.0922
     27 C         141.2396  145.7598  154.0721 C.3     1  UNL1        0.0215
     28 C         140.6114  147.1218  154.0956 C.3     1  UNL1        0.0035
     29 C         139.4166  147.3817  154.9646 C.3     1  UNL1        0.0215
     30 C         138.8501  146.2797  155.8099 C.3     1  UNL1        0.0922
@<TRIPOS>BOND
     1    18    19    1
     2    19    20   ar
     3    20    21   ar
     4    21    22   ar
     5    22     1    1
     6     1     2   ar
     7     2    10    1
     8    10    11   ar
     9    11    12   ar
    10    12    13   ar
    11    13    14    1
    12    13    15   ar
    13    15    16   ar
    14    16    17    1
    15     2     3   ar
    16     3     4   ar
    17     4     5   ar
    18     5    25    1
    19    25    26    1
    20    26    27    1
    21    27    28    1
    22    28    29    1
    23    29    30    1
    24     5     6   ar
    25     6     7   ar
    26     7     8   ar
    27     8     9   ar
    28    22    23   ar
    29    23    24   ar
    30    24    19   ar
    31     9     1   ar
    32    16    10   ar
    33     9     4   ar
    34    30    25    1
@<TRIPOS>MOLECULE
*****
 30 34 0 0 0
SMALL
GASTEIGER

@<TRIPOS>ATOM
      1 N         139.8498  140.3037  161.1435 N.ar    1  UNL1       -0.2753
      2 C         139.0484  141.5715  161.1653 C.ar    1  UNL1        0.1497
      3 N         138.4466  141.7629  159.8047 N.ar    1  UNL1       -0.2220
      4 C         138.8761  140.6133  158.9421 C.ar    1  UNL1        0.1487
      5 C         138.5894  140.2713  157.5100 C.ar    1  UNL1        0.1543
      6 N         139.1700  139.0274  156.9053 N.ar    1  UNL1       -0.2073
      7 C         140.0372  138.1256  157.7327 C.ar    1  UNL1        0.2015
      8 N         140.3238  138.4677  159.1648 N.ar    1  UNL1       -0.2045
      9 C         139.7433  139.7115  159.7695 C.ar    1  UNL1        0.1711
     10 C         138.8787  142.4872  162.3412 C.ar    1  UNL1        0.0451
     11 C         137.8381  142.1894  163.3796 C.ar    1  UNL1        0.0047
     12 C         137.6684  143.1051  164.5555 C.ar    1  UNL1        0.0115
     13 C         138.5394  144.3185  164.6930 C.ar    1  UNL1        0.0585
     14 CL        138.3697  145.2342  165.8690 Cl      1  UNL1       -0.0822
     15 C         139.5800  144.6163  163.6546 C.ar    1  UNL1        0.0229
     16 C         139.7497  143.7007  162.4787 C.ar    1  UNL1        0.0614
     17 CL        140.7904  143.9985  161.4402 Cl      1  UNL1       -0.0821
     18 CL        142.9392  138.0047  165.7447 Cl      1  UNL1       -0.0822
     19 C         142.1669  138.5795  164.5944 C.ar    1  UNL1        0.0578
     20 C         140.8609  137.9649  164.1861 C.ar    1  UNL1        0.0129
     21 C         140.0886  138.5396  163.0358 C.ar    1  UNL1        0.0185
     22 C         140.6221  139.7290  162.2938 C.ar    1  UNL1        0.0668
     23 C         141.9281  140.3436  162.7020 C.ar    1  UNL1        0.0185
     24 C         142.7004  139.7688  163.8523 C.ar    1  UNL1        0.0129
     25 N         137.7222  141.1731  156.6826 N.pl3   1  UNL1       -0.2919
     26 C         136.3548  140.7211  156.2634 C.3     1  UNL1        0.0922
     27 C         135.4875  141.6230  155.4359 C.3     1  UNL1        0.0215
     28 C         135.9878  142.9769  155.0277 C.3     1  UNL1        0.0035
     29 C         137.3553  143.4289  155.4470 C.3     1  UNL1        0.0215
     30 C         138.2224  142.5271  156.2744 C.3     1  UNL1        0.0922
@<TRIPOS>BOND
     1    18    19    1
     2    19    20   ar
     3    20    21   ar
     4    21    22   ar
     5    22     1    1
     6     1     2   ar
     7     2    10    1
     8    10    11   ar
     9    11    12   ar
    10    12    13   ar
    11    13    14    1
    12    13    15   ar
    13    15    16   ar
    14    16    17    1
    15     2     3   ar
    16     3     4   ar
    17     4     5   ar
    18     5    25    1
    19    25    26    1
    20    26    27    1
    21    27    28    1
    22    28    29    1
    23    29    30    1
    24     5     6   ar
    25     6     7   ar
    26     7     8   ar
    27     8     9   ar
    28    22    23   ar
    29    23    24   ar
    30    24    19   ar
    31     9     1   ar
    32    16    10   ar
    33     9     4   ar
    34    30    25    1
@<TRIPOS>MOLECULE
*****
 30 34 0 0 0
SMALL
GASTEIGER

@<TRIPOS>ATOM
      1 N         143.3325  140.3589  158.9258 N.ar    1  UNL1       -0.2753
      2 C         143.8963  141.7371  159.1067 C.ar    1  UNL1        0.1497
      3 N         144.7082  142.0692  157.8899 N.ar    1  UNL1       -0.2220
      4 C         144.6462  140.8961  156.9570 C.ar    1  UNL1        0.1487
      5 C         145.2541  140.6540  155.6073 C.ar    1  UNL1        0.1543
      6 N         145.0118  139.3549  154.8977 N.ar    1  UNL1       -0.2073
      7 C         144.1616  138.2979  155.5379 C.ar    1  UNL1        0.2015
      8 N         143.5537  138.5400  156.8876 N.ar    1  UNL1       -0.2045
      9 C         143.7960  139.8391  157.5972 C.ar    1  UNL1        0.1711
     10 C         143.6852  142.6269  160.2957 C.ar    1  UNL1        0.0451
     11 C         144.7077  142.6685  161.3923 C.ar    1  UNL1        0.0047
     12 C         144.4965  143.5583  162.5812 C.ar    1  UNL1        0.0115
     13 C         143.2629  144.4066  162.6735 C.ar    1  UNL1        0.0585
     14 CL        143.0518  145.2965  163.8625 Cl      1  UNL1       -0.0822
     15 C         142.2404  144.3651  161.5768 C.ar    1  UNL1        0.0229
     16 C         142.4515  143.4752  160.3879 C.ar    1  UNL1        0.0614
     17 CL        141.4290  143.4337  159.2912 Cl      1  UNL1       -0.0821
     18 CL        139.8372  137.4375  162.8308 Cl      1  UNL1       -0.0822
     19 C         140.7111  138.1678  161.8546 C.ar    1  UNL1        0.0578
     20 C         140.1053  139.1444  160.8905 C.ar    1  UNL1        0.0129
     21 C         140.9791  139.8747  159.9143 C.ar    1  UNL1        0.0185
     22 C         142.4587  139.6285  159.9020 C.ar    1  UNL1        0.0668
     23 C         143.0645  138.6520  160.8661 C.ar    1  UNL1        0.0185
     24 C         142.1906  137.9217  161.8423 C.ar    1  UNL1        0.0129
     25 N         146.1043  141.7111  154.9671 N.pl3   1  UNL1       -0.2919
     26 C         145.4592  142.8713  154.2687 C.3     1  UNL1        0.0922
     27 C         146.3095  143.9284  153.6285 C.3     1  UNL1        0.0215
     28 C         147.8048  143.8252  153.6867 C.3     1  UNL1        0.0035
     29 C         148.4499  142.6649  154.3852 C.3     1  UNL1        0.0215
     30 C         147.5996  141.6079  155.0253 C.3     1  UNL1        0.0922
@<TRIPOS>BOND
     1    18    19    1
     2    19    20   ar
     3    20    21   ar
     4    21    22   ar
     5    22     1    1
     6     1     2   ar
     7     2    10    1
     8    10    11   ar
     9    11    12   ar
    10    12    13   ar
    11    13    14    1
    12    13    15   ar
    13    15    16   ar
    14    16    17    1
    15     2     3   ar
    16     3     4   ar
    17     4     5   ar
    18     5    25    1
    19    25    26    1
    20    26    27    1
    21    27    28    1
    22    28    29    1
    23    29    30    1
    24     5     6   ar
    25     6     7   ar
    26     7     8   ar
    27     8     9   ar
    28    22    23   ar
    29    23    24   ar
    30    24    19   ar
    31     9     1   ar
    32    16    10   ar
    33     9     4   ar
    34    30    25    1
@<TRIPOS>MOLECULE
*****
 30 34 0 0 0
SMALL
GASTEIGER

@<TRIPOS>ATOM
      1 N         142.3016  139.7529  160.6016 N.ar    1  UNL1       -0.2753
      2 C         143.3013  140.8664  160.7058 C.ar    1  UNL1        0.1497
      3 N         143.8445  141.1316  159.3331 N.ar    1  UNL1       -0.2220
      4 C         143.1805  140.1820  158.3804 C.ar    1  UNL1        0.1487
      5 C         143.3210  139.9832  156.9003 C.ar    1  UNL1        0.1543
      6 N         142.5080  138.9323  156.2042 N.ar    1  UNL1       -0.2073
      7 C         141.5544  138.0803  156.9882 C.ar    1  UNL1        0.2015
      8 N         141.4139  138.2791  158.4683 N.ar    1  UNL1       -0.2045
      9 C         142.2270  139.3300  159.1644 C.ar    1  UNL1        0.1711
     10 C         143.6896  141.5879  161.9623 C.ar    1  UNL1        0.0451
     11 C         144.9187  141.1737  162.7157 C.ar    1  UNL1        0.0047
     12 C         145.3069  141.8953  163.9721 C.ar    1  UNL1        0.0115
     13 C         144.4660  143.0310  164.4752 C.ar    1  UNL1        0.0585
     14 CL        144.8543  143.7525  165.7316 Cl      1  UNL1       -0.0822
     15 C         143.2369  143.4452  163.7217 C.ar    1  UNL1        0.0229
     16 C         142.8487  142.7237  162.4653 C.ar    1  UNL1        0.0614
     17 CL        141.6195  143.1378  161.7119 Cl      1  UNL1       -0.0821
     18 CL        139.1540  137.4033  165.1372 Cl      1  UNL1       -0.0822
     19 C         139.9409  137.9906  164.0033 C.ar    1  UNL1        0.0578
     20 C         139.4666  139.2455  163.3321 C.ar    1  UNL1        0.0129
     21 C         140.2536  139.8329  162.1982 C.ar    1  UNL1        0.0185
     22 C         141.5147  139.1655  161.7355 C.ar    1  UNL1        0.0668
     23 C         141.9889  137.9107  162.4067 C.ar    1  UNL1        0.0185
     24 C         141.2020  137.3233  163.5406 C.ar    1  UNL1        0.0129
     25 N         144.2746  140.8353  156.1163 N.pl3   1  UNL1       -0.2919
     26 C         143.8171  142.1468  155.5502 C.3     1  UNL1        0.0922
     27 C         144.7707  142.9989  154.7662 C.3     1  UNL1        0.0215
     28 C         146.1818  142.5394  154.5483 C.3     1  UNL1        0.0035
     29 C         146.6394  141.2278  155.1144 C.3     1  UNL1        0.0215
     30 C         145.6858  140.3758  155.8984 C.3     1  UNL1        0.0922
@<TRIPOS>BOND
     1    18    19    1
     2    19    20   ar
     3    20    21   ar
     4    21    22   ar
     5    22     1    1
     6     1     2   ar
     7     2    10    1
     8    10    11   ar
     9    11    12   ar
    10    12    13   ar
    11    13    14    1
    12    13    15   ar
    13    15    16   ar
    14    16    17    1
    15     2     3   ar
    16     3     4   ar
    17     4     5   ar
    18     5    25    1
    19    25    26    1
    20    26    27    1
    21    27    28    1
    22    28    29    1
    23    29    30    1
    24     5     6   ar
    25     6     7   ar
    26     7     8   ar
    27     8     9   ar
    28    22    23   ar
    29    23    24   ar
    30    24    19   ar
    31     9     1   ar
    32    16    10   ar
    33     9     4   ar
    34    30    25    1
