@<TRIPOS>MOLECULE
*****
 32 35 0 0 0
SMALL
GASTEIGER

@<TRIPOS>ATOM
      1 C         139.6444  140.5140  169.2947 C.ar    1  UNL1        0.1679
      2 C         139.3706  140.1358  167.8692 C.ar    1  UNL1        0.0733
      3 C         138.2433  139.2010  167.5446 C.ar    1  UNL1        0.1390
      4 N         137.3899  138.6445  168.6454 N.ar    1  UNL1       -0.2088
      5 C         137.6637  139.0227  170.0709 C.ar    1  UNL1        0.2001
      6 N         138.7910  139.9575  170.3955 N.ar    1  UNL1       -0.2047
      7 C         144.4750  142.6090  169.6922 C.3     1  UNL1        0.0540
      8 C         142.9920  142.4118  169.8021 C.ar    1  UNL1        0.0805
      9 C         142.0207  143.3630  170.4359 C.ar    1  UNL1        0.0312
     10 C         140.6484  142.7679  170.3229 C.ar    1  UNL1        0.0637
     11 C         139.3763  143.3837  170.8253 C.3     1  UNL1        0.0522
     12 N         140.7717  141.4489  169.6193 N.ar    1  UNL1       -0.2164
     13 N         142.2201  141.2288  169.2974 N.ar    1  UNL1       -0.1684
     14 C         136.8102  138.4661  171.1717 C.ar    1  UNL1        0.1805
     15 C         135.5004  139.0266  171.6410 C.ar    1  UNL1        0.0434
     16 C         134.9974  138.1582  172.7559 C.ar    1  UNL1        0.0362
     17 C         135.9964  137.0610  172.9756 C.ar    1  UNL1        0.1234
     18 C         135.8931  135.9658  173.9953 C.3     1  UNL1        0.0725
     19 O         137.1167  137.2513  171.9965 O.2     1  UNL1       -0.4546
     20 N         137.9695  138.8228  166.1191 N.am    1  UNL1       -0.2681
     21 C         139.0934  138.3736  165.2332 C.2     1  UNL1        0.2435
     22 O         140.4913  138.3026  165.7728 O.2     1  UNL1       -0.2732
     23 H         137.0520  138.8694  165.7650 H       1  UNL1        0.1563
     24 C         138.8196  137.9953  163.8077 C.3     1  UNL1        0.1588
     25 N         138.5050  139.0580  162.7969 N.3     1  UNL1       -0.2638
     26 C         137.7750  138.8551  161.5024 C.3     1  UNL1        0.0740
     27 C         137.6839  140.1819  160.8086 C.3     1  UNL1        0.0347
     28 C         138.3578  141.2048  161.6744 C.3     1  UNL1        0.0750
     29 C         138.8652  140.5102  162.9032 C.3     1  UNL1        0.0886
     30 N         138.4993  142.6658  161.3655 N.3     1  UNL1       -0.2702
     31 C         138.0443  143.6905  162.3619 C.3     1  UNL1        0.0897
     32 C         139.0958  143.1021  160.0602 C.3     1  UNL1        0.0897
@<TRIPOS>BOND
     1     7     8    1
     2     8     9   ar
     3     9    10   ar
     4    10    11    1
     5    10    12   ar
     6    12     1    1
     7     1     2   ar
     8     2     3   ar
     9     3    20    1
    10    20    21   am
    11    21    22    2
    12    21    24    1
    13    24    25    1
    14    25    26    1
    15    26    27    1
    16    27    28    1
    17    28    30    1
    18    30    31    1
    19    30    32    1
    20    28    29    1
    21     3     4   ar
    22     4     5   ar
    23     5    14    1
    24    14    15   ar
    25    15    16   ar
    26    16    17   ar
    27    17    18    1
    28    17    19   ar
    29     5     6   ar
    30    12    13   ar
    31    13     8   ar
    32     6     1   ar
    33    29    25    1
    34    19    14   ar
    35    20    23    1
@<TRIPOS>MOLECULE
*****
 32 35 0 0 0
SMALL
GASTEIGER

@<TRIPOS>ATOM
      1 C         142.6021  137.1295  156.8602 C.ar    1  UNL1        0.1679
      2 C         141.2847  137.3636  157.5381 C.ar    1  UNL1        0.0733
      3 C         140.9919  138.6924  158.1694 C.ar    1  UNL1        0.1390
      4 N         142.0164  139.7870  158.1228 N.ar    1  UNL1       -0.2088
      5 C         143.3338  139.5528  157.4449 C.ar    1  UNL1        0.2001
      6 N         143.6267  138.2241  156.8136 N.ar    1  UNL1       -0.2047
      7 C         144.4249  132.2369  156.0716 C.3     1  UNL1        0.0540
      8 C         143.7329  133.5518  155.8664 C.ar    1  UNL1        0.0805
      9 C         142.9586  133.9600  154.6481 C.ar    1  UNL1        0.0312
     10 C         142.4409  135.3498  154.8722 C.ar    1  UNL1        0.0637
     11 C         141.6141  136.1486  153.9087 C.3     1  UNL1        0.0522
     12 N         142.8951  135.8007  156.2288 N.ar    1  UNL1       -0.2164
     13 N         143.6935  134.6894  156.8433 N.ar    1  UNL1       -0.1684
     14 C         144.3584  140.6474  157.3984 C.ar    1  UNL1        0.1805
     15 C         144.4300  141.8279  158.3210 C.ar    1  UNL1        0.0434
     16 C         145.6071  142.6638  157.9139 C.ar    1  UNL1        0.0362
     17 C         146.2630  141.9999  156.7396 C.ar    1  UNL1        0.1234
     18 C         147.4774  142.4951  156.0117 C.3     1  UNL1        0.0725
     19 O         145.4913  140.7537  156.4210 O.2     1  UNL1       -0.4546
     20 N         139.6744  138.9266  158.8473 N.am    1  UNL1       -0.2681
     21 C         139.5435  138.7128  160.3262 C.2     1  UNL1        0.2435
     22 O         140.7300  138.2648  161.1272 O.2     1  UNL1       -0.2732
     23 H         138.8957  139.2206  158.3216 H       1  UNL1        0.1563
     24 C         138.2261  138.9470  161.0041 C.3     1  UNL1        0.1588
     25 N         138.1859  139.5473  162.3782 N.3     1  UNL1       -0.2638
     26 C         137.7922  140.9551  162.7142 C.3     1  UNL1        0.0740
     27 C         137.8954  141.1230  164.2012 C.3     1  UNL1        0.0347
     28 C         138.3529  139.8188  164.7843 C.3     1  UNL1        0.0750
     29 C         138.5324  138.8450  163.6576 C.3     1  UNL1        0.0886
     30 N         138.5893  139.5378  166.2386 N.3     1  UNL1       -0.2702
     31 C         139.6778  140.2609  166.9749 C.3     1  UNL1        0.0897
     32 C         137.7371  138.5338  166.9566 C.3     1  UNL1        0.0897
@<TRIPOS>BOND
     1     7     8    1
     2     8     9   ar
     3     9    10   ar
     4    10    11    1
     5    10    12   ar
     6    12     1    1
     7     1     2   ar
     8     2     3   ar
     9     3    20    1
    10    20    21   am
    11    21    22    2
    12    21    24    1
    13    24    25    1
    14    25    26    1
    15    26    27    1
    16    27    28    1
    17    28    30    1
    18    30    31    1
    19    30    32    1
    20    28    29    1
    21     3     4   ar
    22     4     5   ar
    23     5    14    1
    24    14    15   ar
    25    15    16   ar
    26    16    17   ar
    27    17    18    1
    28    17    19   ar
    29     5     6   ar
    30    12    13   ar
    31    13     8   ar
    32     6     1   ar
    33    29    25    1
    34    19    14   ar
    35    20    23    1
@<TRIPOS>MOLECULE
*****
 32 35 0 0 0
SMALL
GASTEIGER

@<TRIPOS>ATOM
      1 C         142.2828  137.5456  157.5184 C.ar    1  UNL1        0.1679
      2 C         141.1697  137.9034  158.4579 C.ar    1  UNL1        0.0733
      3 C         141.1532  139.2474  159.1237 C.ar    1  UNL1        0.1390
      4 N         142.2498  140.2336  158.8500 N.ar    1  UNL1       -0.2088
      5 C         143.3630  139.8757  157.9104 C.ar    1  UNL1        0.2001
      6 N         143.3795  138.5317  157.2446 N.ar    1  UNL1       -0.2047
      7 C         143.5569  132.5764  156.2673 C.3     1  UNL1        0.0540
      8 C         142.8850  133.9174  156.2774 C.ar    1  UNL1        0.0805
      9 C         141.7647  134.3491  155.3782 C.ar    1  UNL1        0.0312
     10 C         141.4028  135.7607  155.7337 C.ar    1  UNL1        0.0637
     11 C         140.3322  136.5866  155.0842 C.3     1  UNL1        0.0522
     12 N         142.2994  136.2015  156.8525 N.ar    1  UNL1       -0.2164
     13 N         143.2155  135.0623  157.1885 N.ar    1  UNL1       -0.1684
     14 C         144.4596  140.8618  157.6367 C.ar    1  UNL1        0.1805
     15 C         144.7265  142.1202  158.4082 C.ar    1  UNL1        0.0434
     16 C         145.9138  142.7989  157.7917 C.ar    1  UNL1        0.0362
     17 C         146.3806  141.9598  156.6393 C.ar    1  UNL1        0.1234
     18 C         147.5422  142.2644  155.7405 C.3     1  UNL1        0.0725
     19 O         145.4819  140.7627  156.5435 O.2     1  UNL1       -0.4546
     20 N         140.0399  139.6054  160.0633 N.am    1  UNL1       -0.2681
     21 C         138.6565  139.8389  159.5326 C.2     1  UNL1        0.2435
     22 O         138.3863  139.7145  158.0623 O.2     1  UNL1       -0.2732
     23 H         140.2173  139.6870  161.0282 H       1  UNL1        0.1563
     24 C         137.5434  140.1968  160.4721 C.3     1  UNL1        0.1588
     25 N         137.8125  141.0862  161.6496 N.3     1  UNL1       -0.2638
     26 C         137.6643  140.7067  163.0932 C.3     1  UNL1        0.0740
     27 C         138.0373  141.8972  163.9261 C.3     1  UNL1        0.0347
     28 C         138.4160  143.0125  162.9972 C.3     1  UNL1        0.0750
     29 C         138.2770  142.5112  161.5902 C.3     1  UNL1        0.0886
     30 N         138.8563  144.3875  163.4038 N.3     1  UNL1       -0.2702
     31 C         138.8151  144.7919  164.8476 C.3     1  UNL1        0.0897
     32 C         139.3377  145.3582  162.3665 C.3     1  UNL1        0.0897
@<TRIPOS>BOND
     1     7     8    1
     2     8     9   ar
     3     9    10   ar
     4    10    11    1
     5    10    12   ar
     6    12     1    1
     7     1     2   ar
     8     2     3   ar
     9     3    20    1
    10    20    21   am
    11    21    22    2
    12    21    24    1
    13    24    25    1
    14    25    26    1
    15    26    27    1
    16    27    28    1
    17    28    30    1
    18    30    31    1
    19    30    32    1
    20    28    29    1
    21     3     4   ar
    22     4     5   ar
    23     5    14    1
    24    14    15   ar
    25    15    16   ar
    26    16    17   ar
    27    17    18    1
    28    17    19   ar
    29     5     6   ar
    30    12    13   ar
    31    13     8   ar
    32     6     1   ar
    33    29    25    1
    34    19    14   ar
    35    20    23    1
@<TRIPOS>MOLECULE
*****
 32 35 0 0 0
SMALL
GASTEIGER

@<TRIPOS>ATOM
      1 C         142.2216  139.3975  161.4826 C.ar    1  UNL1        0.1679
      2 C         142.6300  138.5328  160.3270 C.ar    1  UNL1        0.0733
      3 C         142.6399  139.0949  158.9364 C.ar    1  UNL1        0.1390
      4 N         142.2414  140.5218  158.7014 N.ar    1  UNL1       -0.2088
      5 C         141.8330  141.3865  159.8570 C.ar    1  UNL1        0.2001
      6 N         141.8231  140.8243  161.2476 N.ar    1  UNL1       -0.2047
      7 C         143.6608  138.1636  166.4108 C.3     1  UNL1        0.0540
      8 C         142.8732  138.2682  165.1385 C.ar    1  UNL1        0.0805
      9 C         141.5195  137.6723  164.8880 C.ar    1  UNL1        0.0312
     10 C         141.1107  138.0229  163.4880 C.ar    1  UNL1        0.0637
     11 C         139.8265  137.6299  162.8200 C.3     1  UNL1        0.0522
     12 N         142.2117  138.8353  162.8733 N.ar    1  UNL1       -0.2164
     13 N         143.3009  138.9869  163.8933 N.ar    1  UNL1       -0.1684
     14 C         141.4344  142.8134  159.6220 C.ar    1  UNL1        0.1805
     15 C         141.1420  143.8332  160.6823 C.ar    1  UNL1        0.0434
     16 C         140.7852  145.1211  160.0010 C.ar    1  UNL1        0.0362
     17 C         140.8571  144.8972  158.5196 C.ar    1  UNL1        0.1234
     18 C         140.5770  145.9199  157.4587 C.3     1  UNL1        0.0725
     19 O         141.2584  143.4709  158.2853 O.2     1  UNL1       -0.4546
     20 N         143.0483  138.2302  157.7807 N.am    1  UNL1       -0.2681
     21 C         142.0079  137.4911  156.9926 C.2     1  UNL1        0.2435
     22 O         140.5590  137.6166  157.3602 O.2     1  UNL1       -0.2732
     23 H         143.9992  138.1479  157.5394 H       1  UNL1        0.1563
     24 C         142.4162  136.6264  155.8370 C.3     1  UNL1        0.1588
     25 N         142.5040  135.1387  156.0076 N.3     1  UNL1       -0.2638
     26 C         141.5755  134.1259  155.4059 C.3     1  UNL1        0.0740
     27 C         142.0334  132.7639  155.8364 C.3     1  UNL1        0.0347
     28 C         143.2449  132.9349  156.7041 C.3     1  UNL1        0.0750
     29 C         143.5358  134.4026  156.8099 C.3     1  UNL1        0.0886
     30 N         144.0281  131.8319  157.3522 N.3     1  UNL1       -0.2702
     31 C         145.3519  132.1281  157.9923 C.3     1  UNL1        0.0897
     32 C         143.4874  130.4328  157.3602 C.3     1  UNL1        0.0897
@<TRIPOS>BOND
     1     7     8    1
     2     8     9   ar
     3     9    10   ar
     4    10    11    1
     5    10    12   ar
     6    12     1    1
     7     1     2   ar
     8     2     3   ar
     9     3    20    1
    10    20    21   am
    11    21    22    2
    12    21    24    1
    13    24    25    1
    14    25    26    1
    15    26    27    1
    16    27    28    1
    17    28    30    1
    18    30    31    1
    19    30    32    1
    20    28    29    1
    21     3     4   ar
    22     4     5   ar
    23     5    14    1
    24    14    15   ar
    25    15    16   ar
    26    16    17   ar
    27    17    18    1
    28    17    19   ar
    29     5     6   ar
    30    12    13   ar
    31    13     8   ar
    32     6     1   ar
    33    29    25    1
    34    19    14   ar
    35    20    23    1
@<TRIPOS>MOLECULE
*****
 32 35 0 0 0
SMALL
GASTEIGER

@<TRIPOS>ATOM
      1 C         139.1843  146.7170  155.7266 C.ar    1  UNL1        0.1679
      2 C         140.1050  146.2699  156.8231 C.ar    1  UNL1        0.0733
      3 C         140.0205  144.8674  157.3481 C.ar    1  UNL1        0.1390
      4 N         139.0153  143.9119  156.7766 N.ar    1  UNL1       -0.2088
      5 C         138.0946  144.3590  155.6801 C.ar    1  UNL1        0.2001
      6 N         138.1791  145.7616  155.1551 N.ar    1  UNL1       -0.2047
      7 C         138.5316  151.9304  155.2013 C.3     1  UNL1        0.0540
      8 C         138.9688  150.5159  154.9601 C.ar    1  UNL1        0.0805
      9 C         139.8288  150.0400  153.8270 C.ar    1  UNL1        0.0312
     10 C         140.0142  148.5590  153.9762 C.ar    1  UNL1        0.0637
     11 C         140.8060  147.6729  153.0609 C.3     1  UNL1        0.0522
     12 N         139.2688  148.1196  155.2015 N.ar    1  UNL1       -0.2164
     13 N         138.6227  149.3291  155.8096 N.ar    1  UNL1       -0.1684
     14 C         137.0894  143.4035  155.1086 C.ar    1  UNL1        0.1805
     15 C         136.6221  143.3632  153.6838 C.ar    1  UNL1        0.0434
     16 C         135.6189  142.2554  153.5561 C.ar    1  UNL1        0.0362
     17 C         135.4661  141.6110  154.9021 C.ar    1  UNL1        0.1234
     18 C         134.5631  140.4593  155.2309 C.3     1  UNL1        0.0725
     19 O         136.3749  142.3207  155.8615 O.2     1  UNL1       -0.4546
     20 N         140.9413  144.4202  158.4446 N.am    1  UNL1       -0.2681
     21 C         140.7408  144.9225  159.8437 C.2     1  UNL1        0.2435
     22 O         139.6195  145.8719  160.1463 O.2     1  UNL1       -0.2732
     23 H         141.6772  143.7971  158.2460 H       1  UNL1        0.1563
     24 C         141.6615  144.4754  160.9402 C.3     1  UNL1        0.1588
     25 N         141.1033  144.0930  162.2790 N.3     1  UNL1       -0.2638
     26 C         141.1313  144.9360  163.5194 C.3     1  UNL1        0.0740
     27 C         140.4644  144.1645  164.6194 C.3     1  UNL1        0.0347
     28 C         140.0242  142.8447  164.0588 C.3     1  UNL1        0.0750
     29 C         140.4191  142.8005  162.6124 C.3     1  UNL1        0.0886
     30 N         139.3139  141.7595  164.8124 N.3     1  UNL1       -0.2702
     31 C         138.1365  141.0648  164.1951 C.3     1  UNL1        0.0897
     32 C         139.7810  141.3691  166.1833 C.3     1  UNL1        0.0897
@<TRIPOS>BOND
     1     7     8    1
     2     8     9   ar
     3     9    10   ar
     4    10    11    1
     5    10    12   ar
     6    12     1    1
     7     1     2   ar
     8     2     3   ar
     9     3    20    1
    10    20    21   am
    11    21    22    2
    12    21    24    1
    13    24    25    1
    14    25    26    1
    15    26    27    1
    16    27    28    1
    17    28    30    1
    18    30    31    1
    19    30    32    1
    20    28    29    1
    21     3     4   ar
    22     4     5   ar
    23     5    14    1
    24    14    15   ar
    25    15    16   ar
    26    16    17   ar
    27    17    18    1
    28    17    19   ar
    29     5     6   ar
    30    12    13   ar
    31    13     8   ar
    32     6     1   ar
    33    29    25    1
    34    19    14   ar
    35    20    23    1
@<TRIPOS>MOLECULE
*****
 32 35 0 0 0
SMALL
GASTEIGER

@<TRIPOS>ATOM
      1 C         138.0592  142.2214  155.8407 C.ar    1  UNL1        0.1679
      2 C         138.8815  141.1083  155.2620 C.ar    1  UNL1        0.0733
      3 C         138.2500  139.7770  154.9816 C.ar    1  UNL1        0.1390
      4 N         136.7963  139.5587  155.2798 N.ar    1  UNL1       -0.2088
      5 C         135.9740  140.6717  155.8584 C.ar    1  UNL1        0.2001
      6 N         136.6055  142.0031  156.1389 N.ar    1  UNL1       -0.2047
      7 C         139.3163  147.3421  155.5600 C.3     1  UNL1        0.0540
      8 C         139.2685  145.9065  155.9922 C.ar    1  UNL1        0.0805
      9 C         140.0563  145.2967  157.1136 C.ar    1  UNL1        0.0312
     10 C         139.6991  143.8420  157.1933 C.ar    1  UNL1        0.0637
     11 C         140.2532  142.8506  158.1731 C.3     1  UNL1        0.0522
     12 N         138.6907  143.5528  156.1212 N.ar    1  UNL1       -0.2164
     13 N         138.4245  144.8288  155.3789 N.ar    1  UNL1       -0.1684
     14 C         134.5202  140.4534  156.1566 C.ar    1  UNL1        0.1805
     15 C         133.3710  141.1746  155.5171 C.ar    1  UNL1        0.0434
     16 C         132.1009  140.6425  156.1119 C.ar    1  UNL1        0.0362
     17 C         132.4652  139.5924  157.1192 C.ar    1  UNL1        0.1234
     18 C         131.5033  138.7985  157.9525 C.3     1  UNL1        0.0725
     19 O         133.9604  139.4755  157.1468 O.2     1  UNL1       -0.4546
     20 N         139.0724  138.6638  154.4029 N.am    1  UNL1       -0.2681
     21 C         139.5237  137.5319  155.2775 C.2     1  UNL1        0.2435
     22 O         139.1528  137.5131  156.7309 O.2     1  UNL1       -0.2732
     23 H         139.3158  138.6762  153.4490 H       1  UNL1        0.1563
     24 C         140.3460  136.4188  154.6989 C.3     1  UNL1        0.1588
     25 N         141.3964  135.7495  155.5348 N.3     1  UNL1       -0.2638
     26 C         142.3430  136.4341  156.4756 C.3     1  UNL1        0.0740
     27 C         143.2162  135.3858  157.0989 C.3     1  UNL1        0.0347
     28 C         142.8093  134.0533  156.5433 C.3     1  UNL1        0.0750
     29 C         141.6846  134.2781  155.5767 C.3     1  UNL1        0.0886
     30 N         143.4199  132.7286  156.8930 N.3     1  UNL1       -0.2702
     31 C         144.6571  132.6729  157.7391 C.3     1  UNL1        0.0897
     32 C         142.7931  131.4595  156.3966 C.3     1  UNL1        0.0897
@<TRIPOS>BOND
     1     7     8    1
     2     8     9   ar
     3     9    10   ar
     4    10    11    1
     5    10    12   ar
     6    12     1    1
     7     1     2   ar
     8     2     3   ar
     9     3    20    1
    10    20    21   am
    11    21    22    2
    12    21    24    1
    13    24    25    1
    14    25    26    1
    15    26    27    1
    16    27    28    1
    17    28    30    1
    18    30    31    1
    19    30    32    1
    20    28    29    1
    21     3     4   ar
    22     4     5   ar
    23     5    14    1
    24    14    15   ar
    25    15    16   ar
    26    16    17   ar
    27    17    18    1
    28    17    19   ar
    29     5     6   ar
    30    12    13   ar
    31    13     8   ar
    32     6     1   ar
    33    29    25    1
    34    19    14   ar
    35    20    23    1
@<TRIPOS>MOLECULE
*****
 32 35 0 0 0
SMALL
GASTEIGER

@<TRIPOS>ATOM
      1 C         141.2595  141.6140  159.7045 C.ar    1  UNL1        0.1679
      2 C         142.1100  140.7144  158.8575 C.ar    1  UNL1        0.0733
      3 C         142.2682  139.2686  159.2240 C.ar    1  UNL1        0.1390
      4 N         141.5761  138.7223  160.4375 N.ar    1  UNL1       -0.2088
      5 C         140.7256  139.6219  161.2844 C.ar    1  UNL1        0.2001
      6 N         140.5673  141.0677  160.9179 N.ar    1  UNL1       -0.2047
      7 C         140.0304  146.0211  157.0686 C.3     1  UNL1        0.0540
      8 C         140.5362  145.0857  158.1265 C.ar    1  UNL1        0.0805
      9 C         141.1789  145.4844  159.4219 C.ar    1  UNL1        0.0312
     10 C         141.5280  144.2324  160.1707 C.ar    1  UNL1        0.0637
     11 C         142.1882  144.1647  161.5159 C.3     1  UNL1        0.0522
     12 N         141.1012  143.0600  159.3380 N.ar    1  UNL1       -0.2164
     13 N         140.4882  143.5873  158.0747 N.ar    1  UNL1       -0.1684
     14 C         140.0334  139.0756  162.4979 C.ar    1  UNL1        0.1805
     15 C         139.7703  137.6271  162.7857 C.ar    1  UNL1        0.0434
     16 C         139.0571  137.5382  164.1022 C.ar    1  UNL1        0.0362
     17 C         138.8794  138.9317  164.6282 C.ar    1  UNL1        0.1234
     18 C         138.2149  139.3088  165.9190 C.3     1  UNL1        0.0725
     19 O         139.4828  139.8818  163.6366 O.2     1  UNL1       -0.4546
     20 N         143.1188  138.3689  158.3770 N.am    1  UNL1       -0.2681
     21 C         142.4885  137.5367  157.2999 C.2     1  UNL1        0.2435
     22 O         141.0077  137.6041  157.0698 O.2     1  UNL1       -0.2732
     23 H         144.0906  138.3246  158.5281 H       1  UNL1        0.1563
     24 C         143.3389  136.6370  156.4530 C.3     1  UNL1        0.1588
     25 N         143.0331  135.1706  156.3752 N.3     1  UNL1       -0.2638
     26 C         141.8600  134.5505  155.6757 C.3     1  UNL1        0.0740
     27 C         141.9484  133.0635  155.8514 C.3     1  UNL1        0.0347
     28 C         143.1763  132.7645  156.6596 C.3     1  UNL1        0.0750
     29 C         143.8466  134.0668  156.9833 C.3     1  UNL1        0.0886
     30 N         143.6505  131.4024  157.0717 N.3     1  UNL1       -0.2702
     31 C         144.8666  131.2622  157.9385 C.3     1  UNL1        0.0897
     32 C         142.9087  130.1806  156.6169 C.3     1  UNL1        0.0897
@<TRIPOS>BOND
     1     7     8    1
     2     8     9   ar
     3     9    10   ar
     4    10    11    1
     5    10    12   ar
     6    12     1    1
     7     1     2   ar
     8     2     3   ar
     9     3    20    1
    10    20    21   am
    11    21    22    2
    12    21    24    1
    13    24    25    1
    14    25    26    1
    15    26    27    1
    16    27    28    1
    17    28    30    1
    18    30    31    1
    19    30    32    1
    20    28    29    1
    21     3     4   ar
    22     4     5   ar
    23     5    14    1
    24    14    15   ar
    25    15    16   ar
    26    16    17   ar
    27    17    18    1
    28    17    19   ar
    29     5     6   ar
    30    12    13   ar
    31    13     8   ar
    32     6     1   ar
    33    29    25    1
    34    19    14   ar
    35    20    23    1
@<TRIPOS>MOLECULE
*****
 32 35 0 0 0
SMALL
GASTEIGER

@<TRIPOS>ATOM
      1 C         140.3126  144.3676  160.0210 C.ar    1  UNL1        0.1679
      2 C         140.9912  143.1708  159.4236 C.ar    1  UNL1        0.0733
      3 C         141.2692  143.1239  157.9503 C.ar    1  UNL1        0.1390
      4 N         140.8685  144.2739  157.0745 N.ar    1  UNL1       -0.2088
      5 C         140.1900  145.4707  157.6720 C.ar    1  UNL1        0.2001
      6 N         139.9120  145.5176  159.1452 N.ar    1  UNL1       -0.2047
      7 C         137.7833  144.3904  164.6560 C.3     1  UNL1        0.0540
      8 C         138.8720  144.4250  163.6248 C.ar    1  UNL1        0.0805
      9 C         140.3418  144.5485  163.8982 C.ar    1  UNL1        0.0312
     10 C         141.0603  144.5420  162.5815 C.ar    1  UNL1        0.0637
     11 C         142.5439  144.6449  162.3862 C.3     1  UNL1        0.0522
     12 N         140.0346  144.4146  161.4943 N.ar    1  UNL1       -0.2164
     13 N         138.6822  144.3423  162.1391 N.ar    1  UNL1       -0.1684
     14 C         139.7893  146.6207  156.7962 C.ar    1  UNL1        0.1805
     15 C         140.0523  146.7415  155.3243 C.ar    1  UNL1        0.0434
     16 C         139.4809  148.0473  154.8569 C.ar    1  UNL1        0.0362
     17 C         138.8648  148.7336  156.0399 C.ar    1  UNL1        0.1234
     18 C         138.1785  150.0673  156.0267 C.3     1  UNL1        0.0725
     19 O         139.0554  147.8519  157.2384 O.2     1  UNL1       -0.4546
     20 N         141.9478  141.9270  157.3528 N.am    1  UNL1       -0.2681
     21 C         143.4418  141.8060  157.4091 C.2     1  UNL1        0.2435
     22 O         144.2573  142.8820  158.0630 O.2     1  UNL1       -0.2732
     23 H         141.4126  141.2208  156.9237 H       1  UNL1        0.1563
     24 C         144.1205  140.6092  156.8116 C.3     1  UNL1        0.1588
     25 N         143.5855  139.2333  157.0773 N.3     1  UNL1       -0.2638
     26 C         143.0220  138.7423  158.3779 C.3     1  UNL1        0.0740
     27 C         142.6084  137.3123  158.1934 C.3     1  UNL1        0.0347
     28 C         142.9162  136.9194  156.7789 C.3     1  UNL1        0.0750
     29 C         143.5201  138.1067  156.0891 C.3     1  UNL1        0.0886
     30 N         142.6644  135.5754  156.1624 N.3     1  UNL1       -0.2702
     31 C         143.7039  134.4986  156.2605 C.3     1  UNL1        0.0897
     32 C         141.3729  135.3082  155.4478 C.3     1  UNL1        0.0897
@<TRIPOS>BOND
     1     7     8    1
     2     8     9   ar
     3     9    10   ar
     4    10    11    1
     5    10    12   ar
     6    12     1    1
     7     1     2   ar
     8     2     3   ar
     9     3    20    1
    10    20    21   am
    11    21    22    2
    12    21    24    1
    13    24    25    1
    14    25    26    1
    15    26    27    1
    16    27    28    1
    17    28    30    1
    18    30    31    1
    19    30    32    1
    20    28    29    1
    21     3     4   ar
    22     4     5   ar
    23     5    14    1
    24    14    15   ar
    25    15    16   ar
    26    16    17   ar
    27    17    18    1
    28    17    19   ar
    29     5     6   ar
    30    12    13   ar
    31    13     8   ar
    32     6     1   ar
    33    29    25    1
    34    19    14   ar
    35    20    23    1
@<TRIPOS>MOLECULE
*****
 32 35 0 0 0
SMALL
GASTEIGER

@<TRIPOS>ATOM
      1 C         140.8715  144.3769  159.5892 C.ar    1  UNL1        0.1679
      2 C         140.6118  142.9956  159.0654 C.ar    1  UNL1        0.0733
      3 C         140.0434  142.8097  157.6898 C.ar    1  UNL1        0.1390
      4 N         139.7346  144.0052  156.8380 N.ar    1  UNL1       -0.2088
      5 C         139.9943  145.3865  157.3618 C.ar    1  UNL1        0.2001
      6 N         140.5628  145.5724  158.7374 N.ar    1  UNL1       -0.2047
      7 C         144.1137  144.1786  163.7522 C.3     1  UNL1        0.0540
      8 C         142.9302  144.4717  162.8783 C.ar    1  UNL1        0.0805
      9 C         141.6992  145.2262  163.2850 C.ar    1  UNL1        0.0312
     10 C         140.7783  145.2826  162.1024 C.ar    1  UNL1        0.0637
     11 C         139.4319  145.9427  162.0641 C.3     1  UNL1        0.0522
     12 N         141.4400  144.5628  160.9648 N.ar    1  UNL1       -0.2164
     13 N         142.7700  144.0617  161.4444 N.ar    1  UNL1       -0.1684
     14 C         139.6856  146.5820  156.5101 C.ar    1  UNL1        0.1805
     15 C         139.9837  146.7227  155.0468 C.ar    1  UNL1        0.0434
     16 C         139.5069  148.0744  154.6043 C.ar    1  UNL1        0.0362
     17 C         138.9140  148.7690  155.7943 C.ar    1  UNL1        0.1234
     18 C         138.3157  150.1445  155.8046 C.3     1  UNL1        0.0725
     19 O         139.0244  147.8467  156.9720 O.2     1  UNL1       -0.4546
     20 N         139.7837  141.4283  157.1659 N.am    1  UNL1       -0.2681
     21 C         140.6910  140.8369  156.1281 C.2     1  UNL1        0.2435
     22 O         141.8580  141.6269  155.6142 O.2     1  UNL1       -0.2732
     23 H         139.0177  140.9099  157.5032 H       1  UNL1        0.1563
     24 C         140.4313  139.4556  155.6042 C.3     1  UNL1        0.1588
     25 N         141.2129  138.2919  156.1378 N.3     1  UNL1       -0.2638
     26 C         142.2264  138.3426  157.2424 C.3     1  UNL1        0.0740
     27 C         142.7581  136.9551  157.4478 C.3     1  UNL1        0.0347
     28 C         142.0732  136.0468  156.4702 C.3     1  UNL1        0.0750
     29 C         141.1182  136.8730  155.6605 C.3     1  UNL1        0.0886
     30 N         142.3029  134.5715  156.3272 N.3     1  UNL1       -0.2702
     31 C         143.2898  133.8764  157.2175 C.3     1  UNL1        0.0897
     32 C         141.5456  133.7912  155.2939 C.3     1  UNL1        0.0897
@<TRIPOS>BOND
     1     7     8    1
     2     8     9   ar
     3     9    10   ar
     4    10    11    1
     5    10    12   ar
     6    12     1    1
     7     1     2   ar
     8     2     3   ar
     9     3    20    1
    10    20    21   am
    11    21    22    2
    12    21    24    1
    13    24    25    1
    14    25    26    1
    15    26    27    1
    16    27    28    1
    17    28    30    1
    18    30    31    1
    19    30    32    1
    20    28    29    1
    21     3     4   ar
    22     4     5   ar
    23     5    14    1
    24    14    15   ar
    25    15    16   ar
    26    16    17   ar
    27    17    18    1
    28    17    19   ar
    29     5     6   ar
    30    12    13   ar
    31    13     8   ar
    32     6     1   ar
    33    29    25    1
    34    19    14   ar
    35    20    23    1
