@<TRIPOS>MOLECULE
*****
 48 55 0 0 0
SMALL
GASTEIGER

@<TRIPOS>ATOM
      1 C         141.3252  141.5590  161.7723 C.3     1  UNL1        0.0235
      2 C         141.7269  140.1162  161.6898 C.3     1  UNL1        0.0257
      3 C         141.9326  139.3219  162.9454 C.3     1  UNL1        0.0940
      4 N         141.7366  139.9705  164.2837 N.am    1  UNL1       -0.2761
      5 C         141.9423  139.1762  165.5394 C.2     1  UNL1        0.2490
      6 O         142.3440  137.7334  165.4569 O.2     1  UNL1       -0.2699
      7 C         141.3349  141.4133  164.3663 C.3     1  UNL1        0.0940
      8 C         141.1292  142.2076  163.1105 C.3     1  UNL1        0.0257
      9 C         141.7463  139.8248  166.8777 C.ar    1  UNL1        0.0534
     10 C         140.5453  139.4822  167.7085 C.ar    1  UNL1        0.0059
     11 C         140.3493  140.1308  169.0467 C.ar    1  UNL1        0.0200
     12 C         141.3543  141.1220  169.5542 C.ar    1  UNL1        0.1217
     13 C         142.5553  141.4646  168.7234 C.ar    1  UNL1        0.0060
     14 C         142.7513  140.8160  167.3852 C.ar    1  UNL1        0.0021
     15 C         143.5603  142.4558  169.2309 C.3     1  UNL1        0.1142
     16 C         143.3643  143.1044  170.5691 C.2     1  UNL1        0.2453
     17 O         144.3693  144.0956  171.0765 O.2     1  UNL1       -0.2732
     18 N         142.1633  142.7618  171.3999 N.am    1  UNL1       -0.1847
     19 S         141.1583  141.7706  170.8925 S.O2    1  UNL1        0.0753
     20 O         139.9381  140.8996  170.8439 O.2     1  UNL1       -0.1499
     21 O         140.5385  142.1167  172.2139 O.2     1  UNL1       -0.1499
     22 H         142.0346  143.1875  172.2783 H       1  UNL1        0.1765
     23 C         140.9458  142.9436  161.3376 C.ar    1  UNL1       -0.0226
     24 C         141.9568  143.8205  160.6602 C.ar    1  UNL1       -0.0043
     25 C         141.5774  145.2051  160.2255 C.ar    1  UNL1       -0.0003
     26 C         140.1869  145.7128  160.4683 C.ar    1  UNL1       -0.0000
     27 C         139.1759  144.8359  161.1457 C.ar    1  UNL1       -0.0003
     28 C         139.5554  143.4513  161.5804 C.ar    1  UNL1       -0.0043
     29 C         141.3895  141.3912  160.2831 C.3     1  UNL1        0.0215
     30 C         140.3593  140.5607  159.5767 C.3     1  UNL1        0.0723
     31 C         140.3197  140.4208  159.6360 C.3     1  UNL1        0.0893
     32 C         139.0965  141.0899  160.1893 C.3     1  UNL1        0.0386
     33 C         138.1010  140.2959  160.9822 C.3     1  UNL1        0.0594
     34 C         137.4132  139.1604  161.6803 C.3     1  UNL1        0.0174
     35 C         138.2508  137.9293  161.4992 C.3     1  UNL1        0.0174
     36 C         139.4564  138.3040  160.6892 C.3     1  UNL1        0.0594
     37 C         140.5474  138.9577  159.8756 C.3     1  UNL1        0.0386
     38 N         139.3638  139.7666  160.3696 N.3     1  UNL1       -0.2751
     39 C         143.8047  139.9509  159.2330 C.3     1  UNL1        0.0718
     40 C         142.7841  140.9313  158.7356 C.ar    1  UNL1        0.1207
     41 N         143.3932  141.9730  157.8446 N.ar    1  UNL1       -0.2309
     42 C         142.3007  142.9003  157.4014 C.ar    1  UNL1        0.0983
     43 C         142.3094  144.1108  156.5157 C.ar    1  UNL1        0.0206
     44 C         141.0336  144.8527  156.2471 C.ar    1  UNL1        0.0016
     45 C         139.7492  144.3841  156.8642 C.ar    1  UNL1        0.0016
     46 C         139.7405  143.1736  157.7499 C.ar    1  UNL1        0.0188
     47 C         141.0163  142.4317  158.0185 C.ar    1  UNL1        0.0785
     48 N         141.3151  141.2148  158.8431 N.ar    1  UNL1       -0.3167
@<TRIPOS>BOND
     1    39    40    1
     2    40    41   ar
     3    41    42   ar
     4    42    43   ar
     5    43    44   ar
     6    44    45   ar
     7    45    46   ar
     8    46    47   ar
     9    47    48   ar
    10    48    31    1
    11    31    32    1
    12    32    33    1
    13    33    34    1
    14    34    35    1
    15    35    36    1
    16    36    37    1
    17    36    38    1
    18    38    30    1
    19    30    29    1
    20    29     1    1
    21     1    23    1
    22    23    24   ar
    23    24    25   ar
    24    25    26   ar
    25    26    27   ar
    26    27    28   ar
    27     1     2    1
    28     2     3    1
    29     3     4    1
    30     4     5   am
    31     5     6    2
    32     5     9    1
    33     9    10   ar
    34    10    11   ar
    35    11    12   ar
    36    12    13   ar
    37    13    14   ar
    38    13    15    1
    39    15    16    1
    40    16    17    2
    41    16    18   am
    42    18    19    1
    43    19    20    2
    44    19    21    2
    45     4     7    1
    46     7     8    1
    47    48    40   ar
    48    37    31    1
    49     8     1    1
    50    47    42   ar
    51    38    33    1
    52    28    23   ar
    53    14     9   ar
    54    19    12    1
    55    18    22    1
@<TRIPOS>MOLECULE
*****
 48 55 0 0 0
SMALL
GASTEIGER

@<TRIPOS>ATOM
      1 C         140.2179  141.3361  161.6660 C.3     1  UNL1        0.0235
      2 C         139.7979  139.8963  161.6435 C.3     1  UNL1        0.0257
      3 C         139.6716  139.1317  162.9278 C.3     1  UNL1        0.0940
      4 N         139.9653  139.8070  164.2347 N.am    1  UNL1       -0.2761
      5 C         139.8390  139.0424  165.5190 C.2     1  UNL1        0.2490
      6 O         139.4190  137.6026  165.4965 O.2     1  UNL1       -0.2699
      7 C         140.3852  141.2468  164.2572 C.3     1  UNL1        0.0940
      8 C         140.5115  142.0114  162.9728 C.3     1  UNL1        0.0257
      9 C         140.1326  139.7177  166.8259 C.ar    1  UNL1        0.0534
     10 C         139.0900  139.7512  167.9037 C.ar    1  UNL1        0.0059
     11 C         139.3836  140.4265  169.2104 C.ar    1  UNL1        0.0200
     12 C         140.7200  141.0682  169.4394 C.ar    1  UNL1        0.1217
     13 C         141.7626  141.0347  168.3616 C.ar    1  UNL1        0.0060
     14 C         141.4689  140.3594  167.0548 C.ar    1  UNL1        0.0021
     15 C         143.0989  141.6764  168.5906 C.3     1  UNL1        0.1142
     16 C         143.3926  142.3516  169.8974 C.2     1  UNL1        0.2453
     17 O         144.7290  142.9934  170.1264 O.2     1  UNL1       -0.2732
     18 N         142.3500  142.3852  170.9753 N.am    1  UNL1       -0.1847
     19 S         141.0136  141.7435  170.7463 S.O2    1  UNL1        0.0753
     20 O         139.6100  141.2804  171.0020 O.2     1  UNL1       -0.1499
     21 O         140.8198  142.2579  172.1419 O.2     1  UNL1       -0.1499
     22 H         142.5427  142.8284  171.8330 H       1  UNL1        0.1765
     23 C         140.5794  142.7067  161.1755 C.ar    1  UNL1       -0.0226
     24 C         139.5100  143.6279  160.6678 C.ar    1  UNL1       -0.0043
     25 C         139.8717  144.9985  160.1773 C.ar    1  UNL1       -0.0003
     26 C         141.3026  145.4480  160.1945 C.ar    1  UNL1       -0.0000
     27 C         142.3720  144.5269  160.7022 C.ar    1  UNL1       -0.0003
     28 C         142.0104  143.1562  161.1927 C.ar    1  UNL1       -0.0043
     29 C         140.0498  141.1368  160.1888 C.3     1  UNL1        0.0215
     30 C         141.0753  140.3625  159.4150 C.3     1  UNL1        0.0723
     31 C         141.1140  140.2206  159.4702 C.3     1  UNL1        0.0893
     32 C         142.3861  140.8456  159.9613 C.3     1  UNL1        0.0386
     33 C         143.4003  140.0115  160.6863 C.3     1  UNL1        0.0594
     34 C         144.0919  138.8464  161.3299 C.3     1  UNL1        0.0174
     35 C         143.2086  137.6432  161.1816 C.3     1  UNL1        0.0174
     36 C         141.9710  138.0647  160.4462 C.3     1  UNL1        0.0594
     37 C         140.8560  138.7617  159.7042 C.3     1  UNL1        0.0386
     38 N         142.0895  139.5283  160.1401 N.3     1  UNL1       -0.2751
     39 C         137.5848  139.9595  159.3955 C.3     1  UNL1        0.0718
     40 C         138.6127  140.8610  158.7785 C.ar    1  UNL1        0.1207
     41 N         137.9884  141.9155  157.9135 N.ar    1  UNL1       -0.2309
     42 C         139.0896  142.7610  157.3456 C.ar    1  UNL1        0.0983
     43 C         139.0728  143.9466  156.4269 C.ar    1  UNL1        0.0206
     44 C         140.3609  144.6002  156.0222 C.ar    1  UNL1        0.0016
     45 C         141.6658  144.0682  156.5362 C.ar    1  UNL1        0.0016
     46 C         141.6826  142.8826  157.4550 C.ar    1  UNL1        0.0188
     47 C         140.3945  142.2291  157.8596 C.ar    1  UNL1        0.0785
     48 N         140.0998  141.0548  158.7452 N.ar    1  UNL1       -0.3167
@<TRIPOS>BOND
     1    39    40    1
     2    40    41   ar
     3    41    42   ar
     4    42    43   ar
     5    43    44   ar
     6    44    45   ar
     7    45    46   ar
     8    46    47   ar
     9    47    48   ar
    10    48    31    1
    11    31    32    1
    12    32    33    1
    13    33    34    1
    14    34    35    1
    15    35    36    1
    16    36    37    1
    17    36    38    1
    18    38    30    1
    19    30    29    1
    20    29     1    1
    21     1    23    1
    22    23    24   ar
    23    24    25   ar
    24    25    26   ar
    25    26    27   ar
    26    27    28   ar
    27     1     2    1
    28     2     3    1
    29     3     4    1
    30     4     5   am
    31     5     6    2
    32     5     9    1
    33     9    10   ar
    34    10    11   ar
    35    11    12   ar
    36    12    13   ar
    37    13    14   ar
    38    13    15    1
    39    15    16    1
    40    16    17    2
    41    16    18   am
    42    18    19    1
    43    19    20    2
    44    19    21    2
    45     4     7    1
    46     7     8    1
    47    48    40   ar
    48    37    31    1
    49     8     1    1
    50    47    42   ar
    51    38    33    1
    52    28    23   ar
    53    14     9   ar
    54    19    12    1
    55    18    22    1
@<TRIPOS>MOLECULE
*****
 48 55 0 0 0
SMALL
GASTEIGER

@<TRIPOS>ATOM
      1 C         142.7786  139.3239  160.8674 C.3     1  UNL1        0.0235
      2 C         142.6375  140.1099  159.5977 C.3     1  UNL1        0.0257
      3 C         142.6029  139.4007  158.2765 C.3     1  UNL1        0.0940
      4 N         142.7096  137.9053  158.2249 N.am    1  UNL1       -0.2761
      5 C         142.6750  137.1961  156.9037 C.2     1  UNL1        0.2490
      6 O         142.5339  137.9821  155.6339 O.2     1  UNL1       -0.2699
      7 C         142.8507  137.1193  159.4946 C.3     1  UNL1        0.0940
      8 C         142.8853  137.8286  160.8159 C.3     1  UNL1        0.0257
      9 C         142.7817  135.7007  156.8521 C.ar    1  UNL1        0.0534
     10 C         143.7854  134.9903  157.7111 C.ar    1  UNL1        0.0059
     11 C         143.8920  133.4950  157.6595 C.ar    1  UNL1        0.0200
     12 C         142.9948  132.7101  156.7489 C.ar    1  UNL1        0.1217
     13 C         141.9911  133.4205  155.8899 C.ar    1  UNL1        0.0060
     14 C         141.8846  134.9158  155.9415 C.ar    1  UNL1        0.0021
     15 C         141.0940  132.6356  154.9794 C.3     1  UNL1        0.1142
     16 C         141.2006  131.1403  154.9278 C.2     1  UNL1        0.2453
     17 O         140.3035  130.3554  154.0172 O.2     1  UNL1       -0.2732
     18 N         142.2044  130.4298  155.7868 N.am    1  UNL1       -0.1847
     19 S         143.1015  131.2147  156.6973 S.O2    1  UNL1        0.0753
     20 O         144.1637  131.5168  157.7124 O.2     1  UNL1       -0.1499
     21 O         143.5770  129.8243  156.9983 O.2     1  UNL1       -0.1499
     22 H         142.2743  129.4484  155.7529 H       1  UNL1        0.1765
     23 C         142.8971  139.0206  162.3316 C.ar    1  UNL1       -0.0226
     24 C         144.1471  139.3879  163.0750 C.ar    1  UNL1       -0.0043
     25 C         144.2654  139.0845  164.5392 C.ar    1  UNL1       -0.0003
     26 C         143.1338  138.4139  165.2601 C.ar    1  UNL1       -0.0000
     27 C         141.8838  138.0466  164.5168 C.ar    1  UNL1       -0.0003
     28 C         141.7655  138.3500  163.0525 C.ar    1  UNL1       -0.0043
     29 C         142.7131  140.7139  161.4274 C.3     1  UNL1        0.0215
     30 C         141.4159  141.4670  161.4152 C.3     1  UNL1        0.0723
     31 C         141.3288  141.4657  161.2845 C.3     1  UNL1        0.0893
     32 C         140.4679  140.4423  161.9640 C.3     1  UNL1        0.0386
     33 C         139.2767  139.8727  161.2523 C.3     1  UNL1        0.0594
     34 C         138.2384  139.5944  160.2061 C.3     1  UNL1        0.0174
     35 C         138.5447  140.4472  159.0107 C.3     1  UNL1        0.0174
     36 C         139.7723  141.2525  159.3181 C.3     1  UNL1        0.0594
     37 C         140.9986  141.9194  159.8935 C.3     1  UNL1        0.0386
     38 N         140.2247  140.8974  160.7035 N.3     1  UNL1       -0.2751
     39 C         144.3541  142.7622  159.9824 C.3     1  UNL1        0.0718
     40 C         143.7652  142.5634  161.3476 C.ar    1  UNL1        0.1207
     41 N         144.6900  143.0313  162.4320 N.ar    1  UNL1       -0.2309
     42 C         144.0165  142.7924  163.7507 C.ar    1  UNL1        0.0983
     43 C         144.4510  143.0558  165.1620 C.ar    1  UNL1        0.0206
     44 C         143.5444  142.7035  166.3040 C.ar    1  UNL1        0.0016
     45 C         142.2033  142.0879  166.0348 C.ar    1  UNL1        0.0016
     46 C         141.7688  141.8245  164.6235 C.ar    1  UNL1        0.0188
     47 C         142.6754  142.1768  163.4815 C.ar    1  UNL1        0.0785
     48 N         142.5201  142.0353  161.9962 N.ar    1  UNL1       -0.3167
@<TRIPOS>BOND
     1    39    40    1
     2    40    41   ar
     3    41    42   ar
     4    42    43   ar
     5    43    44   ar
     6    44    45   ar
     7    45    46   ar
     8    46    47   ar
     9    47    48   ar
    10    48    31    1
    11    31    32    1
    12    32    33    1
    13    33    34    1
    14    34    35    1
    15    35    36    1
    16    36    37    1
    17    36    38    1
    18    38    30    1
    19    30    29    1
    20    29     1    1
    21     1    23    1
    22    23    24   ar
    23    24    25   ar
    24    25    26   ar
    25    26    27   ar
    26    27    28   ar
    27     1     2    1
    28     2     3    1
    29     3     4    1
    30     4     5   am
    31     5     6    2
    32     5     9    1
    33     9    10   ar
    34    10    11   ar
    35    11    12   ar
    36    12    13   ar
    37    13    14   ar
    38    13    15    1
    39    15    16    1
    40    16    17    2
    41    16    18   am
    42    18    19    1
    43    19    20    2
    44    19    21    2
    45     4     7    1
    46     7     8    1
    47    48    40   ar
    48    37    31    1
    49     8     1    1
    50    47    42   ar
    51    38    33    1
    52    28    23   ar
    53    14     9   ar
    54    19    12    1
    55    18    22    1
@<TRIPOS>MOLECULE
*****
 48 55 0 0 0
SMALL
GASTEIGER

@<TRIPOS>ATOM
      1 C         142.5876  139.5904  160.7458 C.3     1  UNL1        0.0235
      2 C         142.6108  140.4832  159.5406 C.3     1  UNL1        0.0257
      3 C         142.5841  139.8865  158.1647 C.3     1  UNL1        0.0940
      4 N         142.5342  138.3970  157.9939 N.am    1  UNL1       -0.2761
      5 C         142.5075  137.8003  156.6180 C.2     1  UNL1        0.2490
      6 O         142.5307  138.6931  155.4128 O.2     1  UNL1       -0.2699
      7 C         142.5111  137.5043  159.1991 C.3     1  UNL1        0.0940
      8 C         142.5377  138.1011  160.5751 C.3     1  UNL1        0.0257
      9 C         142.4577  136.3109  156.4472 C.ar    1  UNL1        0.0534
     10 C         141.4173  135.6919  155.5615 C.ar    1  UNL1        0.0059
     11 C         141.3675  134.2025  155.3907 C.ar    1  UNL1        0.0200
     12 C         142.3580  133.3321  156.1057 C.ar    1  UNL1        0.1217
     13 C         143.3984  133.9511  156.9915 C.ar    1  UNL1        0.0060
     14 C         143.4482  135.4404  157.1622 C.ar    1  UNL1        0.0021
     15 C         144.3889  133.0806  157.7065 C.3     1  UNL1        0.1142
     16 C         144.3391  131.5912  157.5357 C.2     1  UNL1        0.2453
     17 O         145.3296  130.7208  158.2507 O.2     1  UNL1       -0.2732
     18 N         143.2987  130.9722  156.6500 N.am    1  UNL1       -0.1847
     19 S         142.3082  131.8426  155.9350 S.O2    1  UNL1        0.0753
     20 O         141.1622  132.2442  155.0545 O.2     1  UNL1       -0.1499
     21 O         141.8604  130.4927  155.4584 O.2     1  UNL1       -0.1499
     22 H         143.2660  129.9946  156.5379 H       1  UNL1        0.1765
     23 C         142.5809  139.1635  162.1837 C.ar    1  UNL1       -0.0226
     24 C         141.3535  138.5348  162.7738 C.ar    1  UNL1       -0.0043
     25 C         141.3469  138.1079  164.2117 C.ar    1  UNL1       -0.0003
     26 C         142.5677  138.3096  165.0596 C.ar    1  UNL1       -0.0000
     27 C         143.7951  138.9383  164.4697 C.ar    1  UNL1       -0.0003
     28 C         143.8017  139.3653  163.0316 C.ar    1  UNL1       -0.0043
     29 C         142.6351  140.9316  161.4159 C.3     1  UNL1        0.0215
     30 C         141.4271  141.8207  161.4009 C.3     1  UNL1        0.0723
     31 C         141.3473  141.8396  161.2670 C.3     1  UNL1        0.0893
     32 C         140.3558  140.8543  161.8113 C.3     1  UNL1        0.0386
     33 C         139.1540  140.4730  160.9987 C.3     1  UNL1        0.0594
     34 C         138.1505  140.3940  159.8867 C.3     1  UNL1        0.0174
     35 C         138.6014  141.3115  158.7891 C.3     1  UNL1        0.0174
     36 C         139.8838  141.9577  159.2227 C.3     1  UNL1        0.0594
     37 C         141.1371  142.4435  159.9102 C.3     1  UNL1        0.0386
     38 N         140.2253  141.4395  160.5883 N.3     1  UNL1       -0.2751
     39 C         144.5837  142.8219  160.2231 C.3     1  UNL1        0.0718
     40 C         143.8878  142.6256  161.5374 C.ar    1  UNL1        0.1207
     41 N         144.7893  142.9192  162.6997 N.ar    1  UNL1       -0.2309
     42 C         144.0078  142.6959  163.9604 C.ar    1  UNL1        0.0983
     43 C         144.3779  142.8298  165.4079 C.ar    1  UNL1        0.0206
     44 C         143.3635  142.5320  166.4720 C.ar    1  UNL1        0.0016
     45 C         141.9790  142.1004  166.0888 C.ar    1  UNL1        0.0016
     46 C         141.6088  141.9665  164.6414 C.ar    1  UNL1        0.0188
     47 C         142.6233  142.2642  163.5772 C.ar    1  UNL1        0.0785
     48 N         142.5491  142.2208  162.0796 N.ar    1  UNL1       -0.3167
@<TRIPOS>BOND
     1    39    40    1
     2    40    41   ar
     3    41    42   ar
     4    42    43   ar
     5    43    44   ar
     6    44    45   ar
     7    45    46   ar
     8    46    47   ar
     9    47    48   ar
    10    48    31    1
    11    31    32    1
    12    32    33    1
    13    33    34    1
    14    34    35    1
    15    35    36    1
    16    36    37    1
    17    36    38    1
    18    38    30    1
    19    30    29    1
    20    29     1    1
    21     1    23    1
    22    23    24   ar
    23    24    25   ar
    24    25    26   ar
    25    26    27   ar
    26    27    28   ar
    27     1     2    1
    28     2     3    1
    29     3     4    1
    30     4     5   am
    31     5     6    2
    32     5     9    1
    33     9    10   ar
    34    10    11   ar
    35    11    12   ar
    36    12    13   ar
    37    13    14   ar
    38    13    15    1
    39    15    16    1
    40    16    17    2
    41    16    18   am
    42    18    19    1
    43    19    20    2
    44    19    21    2
    45     4     7    1
    46     7     8    1
    47    48    40   ar
    48    37    31    1
    49     8     1    1
    50    47    42   ar
    51    38    33    1
    52    28    23   ar
    53    14     9   ar
    54    19    12    1
    55    18    22    1
@<TRIPOS>MOLECULE
*****
 48 55 0 0 0
SMALL
GASTEIGER

@<TRIPOS>ATOM
      1 C         140.5258  143.2387  160.8035 C.3     1  UNL1        0.0235
      2 C         139.5097  142.2860  160.2469 C.3     1  UNL1        0.0257
      3 C         138.9600  142.4974  158.8674 C.3     1  UNL1        0.0940
      4 N         139.4264  143.6616  158.0444 N.am    1  UNL1       -0.2761
      5 C         138.8766  143.8730  156.6650 C.2     1  UNL1        0.2490
      6 O         137.8605  142.9203  156.1084 O.2     1  UNL1       -0.2699
      7 C         140.4425  144.6143  158.6010 C.3     1  UNL1        0.0940
      8 C         140.9922  144.4029  159.9806 C.3     1  UNL1        0.0257
      9 C         139.3430  145.0372  155.8420 C.ar    1  UNL1        0.0534
     10 C         140.3450  144.8272  154.7457 C.ar    1  UNL1        0.0059
     11 C         140.8114  145.9913  153.9228 C.ar    1  UNL1        0.0200
     12 C         140.2757  147.3655  154.1961 C.ar    1  UNL1        0.1217
     13 C         139.2736  147.5755  155.2923 C.ar    1  UNL1        0.0060
     14 C         138.8073  146.4114  156.1153 C.ar    1  UNL1        0.0021
     15 C         138.7379  148.9497  155.5656 C.3     1  UNL1        0.1142
     16 C         139.2042  150.1138  154.7427 C.2     1  UNL1        0.2453
     17 O         138.6685  151.4880  155.0160 O.2     1  UNL1       -0.2732
     18 N         140.2064  149.9038  153.6464 N.am    1  UNL1       -0.1847
     19 S         140.7421  148.5297  153.3731 S.O2    1  UNL1        0.0753
     20 O         141.5354  147.4268  152.7374 O.2     1  UNL1       -0.1499
     21 O         141.4839  149.3108  152.3294 O.2     1  UNL1       -0.1499
     22 H         140.5124  150.6679  153.1063 H       1  UNL1        0.1765
     23 C         141.4971  143.8624  161.7614 C.ar    1  UNL1       -0.0226
     24 C         142.9727  143.7127  161.5370 C.ar    1  UNL1       -0.0043
     25 C         143.9440  144.3364  162.4950 C.ar    1  UNL1       -0.0003
     26 C         143.4398  145.1097  163.6773 C.ar    1  UNL1       -0.0000
     27 C         141.9642  145.2593  163.9017 C.ar    1  UNL1       -0.0003
     28 C         140.9929  144.6356  162.9437 C.ar    1  UNL1       -0.0043
     29 C         140.3968  142.2912  161.9591 C.3     1  UNL1        0.0215
     30 C         140.9432  140.8983  161.8515 C.3     1  UNL1        0.0723
     31 C         140.9112  140.8132  161.7235 C.3     1  UNL1        0.0893
     32 C         142.2890  141.1620  161.2438 C.3     1  UNL1        0.0386
     33 C         142.7754  140.6473  159.9216 C.3     1  UNL1        0.0594
     34 C         142.8333  139.9415  158.5993 C.3     1  UNL1        0.0174
     35 C         141.5233  139.2415  158.3897 C.3     1  UNL1        0.0174
     36 C         140.6557  139.5148  159.5825 C.3     1  UNL1        0.0594
     37 C         140.0199  139.9497  160.8810 C.3     1  UNL1        0.0386
     38 N         141.4296  140.3836  160.5293 N.3     1  UNL1       -0.2751
     39 C         137.6328  141.6200  162.7865 C.3     1  UNL1        0.0718
     40 C         139.0014  141.6419  163.4001 C.ar    1  UNL1        0.1207
     41 N         138.9732  142.1271  164.8192 N.ar    1  UNL1       -0.2309
     42 C         140.3790  142.1131  165.3419 C.ar    1  UNL1        0.0983
     43 C         140.9582  142.4863  166.6743 C.ar    1  UNL1        0.0206
     44 C         142.4346  142.3655  166.9106 C.ar    1  UNL1        0.0016
     45 C         143.3318  141.8716  165.8146 C.ar    1  UNL1        0.0016
     46 C         142.7526  141.4985  164.4822 C.ar    1  UNL1        0.0188
     47 C         141.2762  141.6192  164.2459 C.ar    1  UNL1        0.0785
     48 N         140.4247  141.3280  163.0458 N.ar    1  UNL1       -0.3167
@<TRIPOS>BOND
     1    39    40    1
     2    40    41   ar
     3    41    42   ar
     4    42    43   ar
     5    43    44   ar
     6    44    45   ar
     7    45    46   ar
     8    46    47   ar
     9    47    48   ar
    10    48    31    1
    11    31    32    1
    12    32    33    1
    13    33    34    1
    14    34    35    1
    15    35    36    1
    16    36    37    1
    17    36    38    1
    18    38    30    1
    19    30    29    1
    20    29     1    1
    21     1    23    1
    22    23    24   ar
    23    24    25   ar
    24    25    26   ar
    25    26    27   ar
    26    27    28   ar
    27     1     2    1
    28     2     3    1
    29     3     4    1
    30     4     5   am
    31     5     6    2
    32     5     9    1
    33     9    10   ar
    34    10    11   ar
    35    11    12   ar
    36    12    13   ar
    37    13    14   ar
    38    13    15    1
    39    15    16    1
    40    16    17    2
    41    16    18   am
    42    18    19    1
    43    19    20    2
    44    19    21    2
    45     4     7    1
    46     7     8    1
    47    48    40   ar
    48    37    31    1
    49     8     1    1
    50    47    42   ar
    51    38    33    1
    52    28    23   ar
    53    14     9   ar
    54    19    12    1
    55    18    22    1
@<TRIPOS>MOLECULE
*****
 48 55 0 0 0
SMALL
GASTEIGER

@<TRIPOS>ATOM
      1 C         141.7381  140.0259  163.3885 C.3     1  UNL1        0.0235
      2 C         143.1589  140.1687  162.9292 C.3     1  UNL1        0.0257
      3 C         143.4976  140.0062  161.4771 C.3     1  UNL1        0.0940
      4 N         142.4155  139.7009  160.4841 N.am    1  UNL1       -0.2761
      5 C         142.7542  139.5384  159.0319 C.2     1  UNL1        0.2490
      6 O         144.1750  139.6812  158.5726 O.2     1  UNL1       -0.2699
      7 C         140.9947  139.5580  160.9434 C.3     1  UNL1        0.0940
      8 C         140.6560  139.7205  162.3957 C.3     1  UNL1        0.0257
      9 C         141.6721  139.2331  158.0390 C.ar    1  UNL1        0.0534
     10 C         141.1336  137.8380  157.9217 C.ar    1  UNL1        0.0059
     11 C         140.0516  137.5327  156.9288 C.ar    1  UNL1        0.0200
     12 C         139.5080  138.6225  156.0532 C.ar    1  UNL1        0.1217
     13 C         140.0464  140.0176  156.1704 C.ar    1  UNL1        0.0060
     14 C         141.1284  140.3229  157.1633 C.ar    1  UNL1        0.0021
     15 C         139.5028  141.1074  155.2947 C.3     1  UNL1        0.1142
     16 C         138.4207  140.8021  154.3018 C.2     1  UNL1        0.2453
     17 O         137.8771  141.8919  153.4261 O.2     1  UNL1       -0.2732
     18 N         137.8822  139.4070  154.1845 N.am    1  UNL1       -0.1847
     19 S         138.4258  138.3172  155.0602 S.O2    1  UNL1        0.0753
     20 O         138.6167  136.9574  155.6638 O.2     1  UNL1       -0.1499
     21 O         137.4100  137.5396  154.2769 O.2     1  UNL1       -0.1499
     22 H         137.1720  139.2066  153.5328 H       1  UNL1        0.1765
     23 C         140.5498  139.9840  164.3029 C.ar    1  UNL1       -0.0226
     24 C         140.3398  138.8052  165.2064 C.ar    1  UNL1       -0.0043
     25 C         139.1515  138.7634  166.1208 C.ar    1  UNL1       -0.0003
     26 C         138.1731  139.9004  166.1317 C.ar    1  UNL1       -0.0000
     27 C         138.3831  141.0792  165.2283 C.ar    1  UNL1       -0.0003
     28 C         139.5715  141.1210  164.3139 C.ar    1  UNL1       -0.0043
     29 C         142.4075  140.3167  164.6990 C.3     1  UNL1        0.0215
     30 C         142.9338  141.6923  164.9834 C.3     1  UNL1        0.0723
     31 C         143.0296  141.7600  164.8790 C.3     1  UNL1        0.0893
     32 C         141.8410  142.5513  164.4196 C.3     1  UNL1        0.0386
     33 C         141.9865  143.5440  163.3045 C.3     1  UNL1        0.0594
     34 C         142.5748  144.3828  162.2090 C.3     1  UNL1        0.0174
     35 C         144.0312  144.0422  162.0957 C.3     1  UNL1        0.0174
     36 C         144.3430  142.9929  163.1212 C.3     1  UNL1        0.0594
     37 C         144.3636  141.9613  164.2234 C.3     1  UNL1        0.0386
     38 N         143.0792  142.6849  163.8683 N.3     1  UNL1       -0.2751
     39 C         144.6271  138.6403  165.3733 C.3     1  UNL1        0.0718
     40 C         143.6129  139.4616  166.1128 C.ar    1  UNL1        0.1207
     41 N         143.1636  138.7934  167.3783 N.ar    1  UNL1       -0.2309
     42 C         142.1571  139.6860  168.0418 C.ar    1  UNL1        0.0983
     43 C         141.3755  139.5456  169.3143 C.ar    1  UNL1        0.0206
     44 C         140.4213  140.6252  169.7314 C.ar    1  UNL1        0.0016
     45 C         140.2485  141.8452  168.8759 C.ar    1  UNL1        0.0016
     46 C         141.0301  141.9856  167.6033 C.ar    1  UNL1        0.0188
     47 C         141.9844  140.9060  167.1863 C.ar    1  UNL1        0.0785
     48 N         142.8841  140.7673  165.9941 N.ar    1  UNL1       -0.3167
@<TRIPOS>BOND
     1    39    40    1
     2    40    41   ar
     3    41    42   ar
     4    42    43   ar
     5    43    44   ar
     6    44    45   ar
     7    45    46   ar
     8    46    47   ar
     9    47    48   ar
    10    48    31    1
    11    31    32    1
    12    32    33    1
    13    33    34    1
    14    34    35    1
    15    35    36    1
    16    36    37    1
    17    36    38    1
    18    38    30    1
    19    30    29    1
    20    29     1    1
    21     1    23    1
    22    23    24   ar
    23    24    25   ar
    24    25    26   ar
    25    26    27   ar
    26    27    28   ar
    27     1     2    1
    28     2     3    1
    29     3     4    1
    30     4     5   am
    31     5     6    2
    32     5     9    1
    33     9    10   ar
    34    10    11   ar
    35    11    12   ar
    36    12    13   ar
    37    13    14   ar
    38    13    15    1
    39    15    16    1
    40    16    17    2
    41    16    18   am
    42    18    19    1
    43    19    20    2
    44    19    21    2
    45     4     7    1
    46     7     8    1
    47    48    40   ar
    48    37    31    1
    49     8     1    1
    50    47    42   ar
    51    38    33    1
    52    28    23   ar
    53    14     9   ar
    54    19    12    1
    55    18    22    1
@<TRIPOS>MOLECULE
*****
 48 55 0 0 0
SMALL
GASTEIGER

@<TRIPOS>ATOM
      1 C         142.0864  139.3955  161.3935 C.3     1  UNL1        0.0235
      2 C         143.0525  140.3598  160.7715 C.3     1  UNL1        0.0257
      3 C         143.5061  140.1590  159.3560 C.3     1  UNL1        0.0940
      4 N         142.9936  138.9939  158.5622 N.am    1  UNL1       -0.2761
      5 C         143.4472  138.7931  157.1467 C.2     1  UNL1        0.2490
      6 O         144.4133  139.7574  156.5248 O.2     1  UNL1       -0.2699
      7 C         142.0274  138.0296  159.1841 C.3     1  UNL1        0.0940
      8 C         141.5738  138.2305  160.5998 C.3     1  UNL1        0.0257
      9 C         142.9347  137.6280  156.3529 C.ar    1  UNL1        0.0534
     10 C         142.2286  137.8606  155.0501 C.ar    1  UNL1        0.0059
     11 C         141.7161  136.6955  154.2564 C.ar    1  UNL1        0.0200
     12 C         141.9097  135.2979  154.7656 C.ar    1  UNL1        0.1217
     13 C         142.6157  135.0654  156.0684 C.ar    1  UNL1        0.0060
     14 C         143.1282  136.2304  156.8621 C.ar    1  UNL1        0.0021
     15 C         142.8093  133.6678  156.5776 C.3     1  UNL1        0.1142
     16 C         142.2968  132.5027  155.7839 C.2     1  UNL1        0.2453
     17 O         142.4903  131.1051  156.2931 O.2     1  UNL1       -0.2732
     18 N         141.5907  132.7352  154.4810 N.am    1  UNL1       -0.1847
     19 S         141.3972  134.1328  153.9718 S.O2    1  UNL1        0.0753
     20 O         140.9747  135.2620  153.0794 O.2     1  UNL1       -0.1499
     21 O         140.7379  133.3599  152.8682 O.2     1  UNL1       -0.1499
     22 H         141.2543  131.9705  153.9601 H       1  UNL1        0.1765
     23 C         141.1902  138.7591  162.4141 C.ar    1  UNL1       -0.0226
     24 C         141.7835  138.0093  163.5699 C.ar    1  UNL1       -0.0043
     25 C         140.8872  137.3729  164.5905 C.ar    1  UNL1       -0.0003
     26 C         139.3976  137.4863  164.4554 C.ar    1  UNL1       -0.0000
     27 C         138.8042  138.2360  163.2997 C.ar    1  UNL1       -0.0003
     28 C         139.7006  138.8725  162.2790 C.ar    1  UNL1       -0.0043
     29 C         142.2877  140.3395  162.5416 C.3     1  UNL1        0.0215
     30 C         141.7160  141.7251  162.4824 C.3     1  UNL1        0.0723
     31 C         141.7392  141.8104  162.3526 C.3     1  UNL1        0.0893
     32 C         140.3300  141.4663  161.9707 C.3     1  UNL1        0.0386
     33 C         139.7528  141.9852  160.6871 C.3     1  UNL1        0.0594
     34 C         139.6036  142.6940  159.3737 C.3     1  UNL1        0.0174
     35 C         140.8975  143.3910  159.0735 C.3     1  UNL1        0.0174
     36 C         141.8463  143.1129  160.2015 C.3     1  UNL1        0.0594
     37 C         142.5711  142.6734  161.4509 C.3     1  UNL1        0.0386
     38 N         141.1388  142.2440  161.1988 N.3     1  UNL1       -0.2751
     39 C         145.0938  141.0715  163.2063 C.3     1  UNL1        0.0718
     40 C         143.7655  141.0084  163.9003 C.ar    1  UNL1        0.1207
     41 N         143.8905  140.5065  165.3083 N.ar    1  UNL1       -0.2309
     42 C         142.5187  140.4795  165.9144 C.ar    1  UNL1        0.0983
     43 C         142.0297  140.0757  167.2738 C.ar    1  UNL1        0.0206
     44 C         140.5678  140.1572  167.5996 C.ar    1  UNL1        0.0016
     45 C         139.5948  140.6424  166.5661 C.ar    1  UNL1        0.0016
     46 C         140.0838  141.0461  165.2068 C.ar    1  UNL1        0.0188
     47 C         141.5458  140.9646  164.8809 C.ar    1  UNL1        0.0785
     48 N         142.3163  141.2915  163.6362 N.ar    1  UNL1       -0.3167
@<TRIPOS>BOND
     1    39    40    1
     2    40    41   ar
     3    41    42   ar
     4    42    43   ar
     5    43    44   ar
     6    44    45   ar
     7    45    46   ar
     8    46    47   ar
     9    47    48   ar
    10    48    31    1
    11    31    32    1
    12    32    33    1
    13    33    34    1
    14    34    35    1
    15    35    36    1
    16    36    37    1
    17    36    38    1
    18    38    30    1
    19    30    29    1
    20    29     1    1
    21     1    23    1
    22    23    24   ar
    23    24    25   ar
    24    25    26   ar
    25    26    27   ar
    26    27    28   ar
    27     1     2    1
    28     2     3    1
    29     3     4    1
    30     4     5   am
    31     5     6    2
    32     5     9    1
    33     9    10   ar
    34    10    11   ar
    35    11    12   ar
    36    12    13   ar
    37    13    14   ar
    38    13    15    1
    39    15    16    1
    40    16    17    2
    41    16    18   am
    42    18    19    1
    43    19    20    2
    44    19    21    2
    45     4     7    1
    46     7     8    1
    47    48    40   ar
    48    37    31    1
    49     8     1    1
    50    47    42   ar
    51    38    33    1
    52    28    23   ar
    53    14     9   ar
    54    19    12    1
    55    18    22    1
@<TRIPOS>MOLECULE
*****
 48 55 0 0 0
SMALL
GASTEIGER

@<TRIPOS>ATOM
      1 C         140.8349  141.1576  162.6189 C.3     1  UNL1        0.0235
      2 C         141.7427  142.2075  162.0501 C.3     1  UNL1        0.0257
      3 C         141.7262  142.4960  160.5782 C.3     1  UNL1        0.0940
      4 N         140.8018  141.7345  159.6750 N.am    1  UNL1       -0.2761
      5 C         140.7853  142.0229  158.2032 C.2     1  UNL1        0.2490
      6 O         141.6931  143.0728  157.6344 O.2     1  UNL1       -0.2699
      7 C         139.8940  140.6845  160.2438 C.3     1  UNL1        0.0940
      8 C         139.9105  140.3961  161.7158 C.3     1  UNL1        0.0257
      9 C         139.8609  141.2614  157.2999 C.ar    1  UNL1        0.0534
     10 C         140.3631  140.0629  156.5508 C.ar    1  UNL1        0.0059
     11 C         139.4388  139.3015  155.6476 C.ar    1  UNL1        0.0200
     12 C         138.0122  139.7386  155.4937 C.ar    1  UNL1        0.1217
     13 C         137.5099  140.9371  156.2428 C.ar    1  UNL1        0.0060
     14 C         138.4343  141.6985  157.1460 C.ar    1  UNL1        0.0021
     15 C         136.0833  141.3742  156.0888 C.3     1  UNL1        0.1142
     16 C         135.1589  140.6127  155.1857 C.2     1  UNL1        0.2453
     17 O         133.7323  141.0498  155.0317 O.2     1  UNL1       -0.2732
     18 N         135.6611  139.4142  154.4365 N.am    1  UNL1       -0.1847
     19 S         137.0878  138.9771  154.5904 S.O2    1  UNL1        0.0753
     20 O         138.3450  138.1794  154.4089 O.2     1  UNL1       -0.1499
     21 O         136.6000  137.9386  153.6242 O.2     1  UNL1       -0.1499
     22 H         135.0544  138.9144  153.8437 H       1  UNL1        0.1765
     23 C         140.1676  140.2644  163.6223 C.ar    1  UNL1       -0.0226
     24 C         140.9004  139.0778  164.1745 C.ar    1  UNL1       -0.0043
     25 C         140.2330  138.1846  165.1780 C.ar    1  UNL1       -0.0003
     26 C         138.8329  138.4780  165.6292 C.ar    1  UNL1       -0.0000
     27 C         138.1001  139.6646  165.0770 C.ar    1  UNL1       -0.0003
     28 C         138.7675  140.5578  164.0735 C.ar    1  UNL1       -0.0043
     29 C         141.5275  141.6089  163.8705 C.3     1  UNL1        0.0215
     30 C         141.2402  142.9672  164.4385 C.3     1  UNL1        0.0723
     31 C         141.2479  143.0932  164.3452 C.3     1  UNL1        0.0893
     32 C         139.7511  143.0305  164.2697 C.3     1  UNL1        0.0386
     33 C         138.9983  144.0402  163.4550 C.3     1  UNL1        0.0594
     34 C         138.6822  145.2030  162.5617 C.3     1  UNL1        0.0174
     35 C         139.9758  145.8584  162.1785 C.3     1  UNL1        0.0174
     36 C         141.0916  145.1006  162.8350 C.3     1  UNL1        0.0594
     37 C         141.9919  144.1656  163.6060 C.3     1  UNL1        0.0386
     38 N         140.4875  143.9769  163.6238 N.3     1  UNL1       -0.2751
     39 C         144.4347  141.6504  163.8050 C.3     1  UNL1        0.0718
     40 C         143.3585  141.5303  164.8430 C.ar    1  UNL1        0.1207
     41 N         143.7248  140.5546  165.9218 N.ar    1  UNL1       -0.2309
     42 C         142.5935  140.5046  166.9054 C.ar    1  UNL1        0.0983
     43 C         142.3959  139.7209  168.1690 C.ar    1  UNL1        0.0206
     44 C         141.1326  139.8821  168.9617 C.ar    1  UNL1        0.0016
     45 C         140.0670  140.8270  168.4909 C.ar    1  UNL1        0.0016
     46 C         140.2646  141.6108  167.2273 C.ar    1  UNL1        0.0188
     47 C         141.5279  141.4496  166.4346 C.ar    1  UNL1        0.0785
     48 N         142.0007  142.0834  165.1599 N.ar    1  UNL1       -0.3167
@<TRIPOS>BOND
     1    39    40    1
     2    40    41   ar
     3    41    42   ar
     4    42    43   ar
     5    43    44   ar
     6    44    45   ar
     7    45    46   ar
     8    46    47   ar
     9    47    48   ar
    10    48    31    1
    11    31    32    1
    12    32    33    1
    13    33    34    1
    14    34    35    1
    15    35    36    1
    16    36    37    1
    17    36    38    1
    18    38    30    1
    19    30    29    1
    20    29     1    1
    21     1    23    1
    22    23    24   ar
    23    24    25   ar
    24    25    26   ar
    25    26    27   ar
    26    27    28   ar
    27     1     2    1
    28     2     3    1
    29     3     4    1
    30     4     5   am
    31     5     6    2
    32     5     9    1
    33     9    10   ar
    34    10    11   ar
    35    11    12   ar
    36    12    13   ar
    37    13    14   ar
    38    13    15    1
    39    15    16    1
    40    16    17    2
    41    16    18   am
    42    18    19    1
    43    19    20    2
    44    19    21    2
    45     4     7    1
    46     7     8    1
    47    48    40   ar
    48    37    31    1
    49     8     1    1
    50    47    42   ar
    51    38    33    1
    52    28    23   ar
    53    14     9   ar
    54    19    12    1
    55    18    22    1
@<TRIPOS>MOLECULE
*****
 48 55 0 0 0
SMALL
GASTEIGER

@<TRIPOS>ATOM
      1 C         139.9770  140.6015  162.6228 C.3     1  UNL1        0.0235
      2 C         140.1495  139.1744  162.1943 C.3     1  UNL1        0.0257
      3 C         139.8942  138.7833  160.7689 C.3     1  UNL1        0.0940
      4 N         139.4664  139.8193  159.7719 N.am    1  UNL1       -0.2761
      5 C         139.2111  139.4281  158.3466 C.2     1  UNL1        0.2490
      6 O         139.3836  138.0010  157.9180 O.2     1  UNL1       -0.2699
      7 C         139.2939  141.2464  160.2005 C.3     1  UNL1        0.0940
      8 C         139.5493  141.6375  161.6260 C.3     1  UNL1        0.0257
      9 C         138.7833  140.4641  157.3496 C.ar    1  UNL1        0.0534
     10 C         137.3245  140.7301  157.1236 C.ar    1  UNL1        0.0059
     11 C         136.8968  141.7661  156.1267 C.ar    1  UNL1        0.0200
     12 C         137.9278  142.5360  155.3559 C.ar    1  UNL1        0.1217
     13 C         139.3866  142.2700  155.5819 C.ar    1  UNL1        0.0060
     14 C         139.8143  141.2340  156.5788 C.ar    1  UNL1        0.0021
     15 C         140.4176  143.0399  154.8111 C.3     1  UNL1        0.1142
     16 C         139.9899  144.0758  153.8142 C.2     1  UNL1        0.2453
     17 O         141.0209  144.8457  153.0434 O.2     1  UNL1       -0.2732
     18 N         138.5310  144.3419  153.5881 N.am    1  UNL1       -0.1847
     19 S         137.5000  143.5720  154.3589 S.O2    1  UNL1        0.0753
     20 O         136.1586  143.1056  154.8418 O.2     1  UNL1       -0.1499
     21 O         136.6064  144.4460  153.5297 O.2     1  UNL1       -0.1499
     22 H         138.2503  145.0218  152.9338 H       1  UNL1        0.1765
     23 C         139.9499  141.8152  163.5038 C.ar    1  UNL1       -0.0226
     24 C         141.0452  142.8356  163.4088 C.ar    1  UNL1       -0.0043
     25 C         141.0180  144.0493  164.2899 C.ar    1  UNL1       -0.0003
     26 C         139.8954  144.2426  165.2659 C.ar    1  UNL1       -0.0000
     27 C         138.8001  143.2222  165.3609 C.ar    1  UNL1       -0.0003
     28 C         138.8273  142.0085  164.4798 C.ar    1  UNL1       -0.0043
     29 C         140.3954  139.9870  163.9256 C.3     1  UNL1        0.0215
     30 C         141.8077  139.5182  164.1145 C.3     1  UNL1        0.0723
     31 C         141.8713  139.4229  164.0072 C.3     1  UNL1        0.0893
     32 C         142.5763  140.6318  163.4670 C.3     1  UNL1        0.0386
     33 C         143.4879  140.5017  162.2830 C.3     1  UNL1        0.0594
     34 C         144.2661  139.9235  161.1384 C.3     1  UNL1        0.0174
     35 C         143.9786  138.4525  161.0785 C.3     1  UNL1        0.0174
     36 C         143.0227  138.1216  162.1861 C.3     1  UNL1        0.0594
     37 C         142.0781  138.0840  163.3634 C.3     1  UNL1        0.0386
     38 N         142.7194  139.3881  162.9305 N.3     1  UNL1       -0.2751
     39 C         138.8990  137.6702  164.7958 C.3     1  UNL1        0.0718
     40 C         139.7125  138.7561  165.4354 C.ar    1  UNL1        0.1207
     41 N         139.1171  139.2134  166.7340 N.ar    1  UNL1       -0.2309
     42 C         139.9962  140.2929  167.2924 C.ar    1  UNL1        0.0983
     43 C         139.9070  141.1119  168.5459 C.ar    1  UNL1        0.0206
     44 C         140.9565  142.1408  168.8459 C.ar    1  UNL1        0.0016
     45 C         142.0953  142.3507  167.8924 C.ar    1  UNL1        0.0016
     46 C         142.1846  141.5317  166.6388 C.ar    1  UNL1        0.0188
     47 C         141.1350  140.5028  166.3389 C.ar    1  UNL1        0.0785
     48 N         140.9597  139.5530  165.1912 N.ar    1  UNL1       -0.3167
@<TRIPOS>BOND
     1    39    40    1
     2    40    41   ar
     3    41    42   ar
     4    42    43   ar
     5    43    44   ar
     6    44    45   ar
     7    45    46   ar
     8    46    47   ar
     9    47    48   ar
    10    48    31    1
    11    31    32    1
    12    32    33    1
    13    33    34    1
    14    34    35    1
    15    35    36    1
    16    36    37    1
    17    36    38    1
    18    38    30    1
    19    30    29    1
    20    29     1    1
    21     1    23    1
    22    23    24   ar
    23    24    25   ar
    24    25    26   ar
    25    26    27   ar
    26    27    28   ar
    27     1     2    1
    28     2     3    1
    29     3     4    1
    30     4     5   am
    31     5     6    2
    32     5     9    1
    33     9    10   ar
    34    10    11   ar
    35    11    12   ar
    36    12    13   ar
    37    13    14   ar
    38    13    15    1
    39    15    16    1
    40    16    17    2
    41    16    18   am
    42    18    19    1
    43    19    20    2
    44    19    21    2
    45     4     7    1
    46     7     8    1
    47    48    40   ar
    48    37    31    1
    49     8     1    1
    50    47    42   ar
    51    38    33    1
    52    28    23   ar
    53    14     9   ar
    54    19    12    1
    55    18    22    1
