@<TRIPOS>MOLECULE
*****
 31 33 0 0 0
SMALL
GASTEIGER

@<TRIPOS>ATOM
      1 C         140.9164  143.1537  164.7507 C.ar    1  UNL1        0.1143
      2 C         140.1970  144.2736  164.0590 C.ar    1  UNL1        0.0850
      3 CL        139.1558  145.1635  164.6707 Cl      1  UNL1       -0.0799
      4 C         140.7016  144.3474  162.6484 C.ar    1  UNL1        0.0574
      5 C         140.3552  145.2540  161.5047 C.ar    1  UNL1        0.0631
      6 CL        139.3240  146.3282  161.6849 Cl      1  UNL1       -0.0821
      7 C         141.0401  145.0862  160.1808 C.ar    1  UNL1        0.0353
      8 C         142.0714  144.0120  160.0006 C.ar    1  UNL1        0.1366
      9 N         142.4177  143.1054  161.1443 N.ar    1  UNL1       -0.2236
     10 C         141.7328  143.2731  162.4682 C.ar    1  UNL1        0.1460
     11 N         141.8655  142.5354  163.7675 N.ar    1  UNL1       -0.3061
     12 C         142.7859  141.3819  164.0364 C.3     1  UNL1        0.1031
     13 C         144.2716  141.5866  164.0135 C.3     1  UNL1        0.0255
     14 C         145.1920  140.4331  164.2823 C.3     1  UNL1        0.0191
     15 C         144.6266  139.0747  164.5741 C.3     1  UNL1        0.0687
     16 N         143.1408  138.8699  164.5970 N.3     1  UNL1       -0.2959
     17 C         142.2204  140.0234  164.3282 C.3     1  UNL1        0.0914
     18 H         142.9066  138.5163  165.5247 H       1  UNL1        0.1233
     19 C         142.7563  143.8443  158.6766 C.2     1  UNL1        0.2606
     20 N         142.8100  144.9897  157.7096 N.am    1  UNL1       -0.3241
     21 O         143.3875  142.5312  158.3197 O.2     1  UNL1       -0.2687
     22 H         142.3957  145.8515  157.9438 H       1  UNL1        0.1453
     23 H         143.2595  144.8796  156.8406 H       1  UNL1        0.1453
     24 C         140.5254  142.3005  167.6001 C.1     1  UNL1       -0.0844
     25 C         140.7209  142.7271  166.1754 C.1     1  UNL1       -0.0460
     26 C         140.3299  141.8739  169.0249 C.3     1  UNL1        0.0817
     27 C         139.9651  140.4946  168.5618 C.3     1  UNL1        0.0156
     28 C         140.6948  143.2532  169.4879 C.3     1  UNL1        0.0156
     29 C         140.1345  141.4473  170.4496 C.3     1  UNL1        0.1541
     30 C         142.5090  140.5534  171.0086 C.3     1  UNL1        0.1741
     31 O         141.3097  141.3749  171.3788 O.3     1  UNL1       -0.3501
@<TRIPOS>BOND
     1    30    31    1
     2    31    29    1
     3    29    26    1
     4    26    27    1
     5    26    28    1
     6    26    24    1
     7    24    25    3
     8    25     1    1
     9     1     2   ar
    10     2     3    1
    11     2     4   ar
    12     4     5   ar
    13     5     6    1
    14     5     7   ar
    15     7     8   ar
    16     8    19    1
    17    19    20   am
    18    19    21    2
    19     8     9   ar
    20     9    10   ar
    21    10    11   ar
    22    12    11    1
    23    12    13    1
    24    13    14    1
    25    14    15    1
    26    15    16    1
    27    16    17    1
    28    11     1   ar
    29    17    12    1
    30    10     4   ar
    31    20    22    1
    32    20    23    1
    33    16    18    1
@<TRIPOS>MOLECULE
*****
 31 33 0 0 0
SMALL
GASTEIGER

@<TRIPOS>ATOM
      1 C         142.0467  140.5749  164.9354 C.ar    1  UNL1        0.1143
      2 C         142.5054  139.7021  166.0658 C.ar    1  UNL1        0.0850
      3 CL        143.2606  138.4128  165.9339 Cl      1  UNL1       -0.0799
      4 C         142.0762  140.3449  167.3514 C.ar    1  UNL1        0.0574
      5 C         142.2510  139.9378  168.7844 C.ar    1  UNL1        0.0631
      6 CL        142.9750  138.6677  169.1203 Cl      1  UNL1       -0.0821
      7 C         141.7020  140.8008  169.8815 C.ar    1  UNL1        0.0353
      8 C         140.9781  142.0708  169.5456 C.ar    1  UNL1        0.1366
      9 N         140.8032  142.4780  168.1126 N.ar    1  UNL1       -0.2236
     10 C         141.3523  141.6150  167.0155 C.ar    1  UNL1        0.1460
     11 N         141.3341  141.7571  165.5223 N.ar    1  UNL1       -0.3061
     12 C         140.7124  142.8837  164.7514 C.3     1  UNL1        0.1031
     13 C         139.2564  142.8345  164.3943 C.3     1  UNL1        0.0255
     14 C         138.6347  143.9611  163.6234 C.3     1  UNL1        0.0191
     15 C         139.4690  145.1370  163.2097 C.3     1  UNL1        0.0687
     16 N         140.9250  145.1863  163.5668 N.3     1  UNL1       -0.2959
     17 C         141.5467  144.0597  164.3377 C.3     1  UNL1        0.0914
     18 H         141.0643  146.0328  164.1186 H       1  UNL1        0.1233
     19 C         140.4290  142.9338  170.6429 C.2     1  UNL1        0.2606
     20 N         139.9750  144.3314  170.3418 N.am    1  UNL1       -0.3241
     21 O         140.3340  142.3992  172.0411 O.2     1  UNL1       -0.2687
     22 H         140.0373  144.6823  169.4241 H       1  UNL1        0.1453
     23 H         139.6146  144.8978  171.0619 H       1  UNL1        0.1453
     24 C         142.4789  140.0485  162.0137 C.1     1  UNL1       -0.0844
     25 C         142.2628  140.3117  163.4745 C.1     1  UNL1       -0.0460
     26 C         142.6949  139.7853  160.5529 C.3     1  UNL1        0.0817
     27 C         141.3594  140.3950  160.2455 C.3     1  UNL1        0.0156
     28 C         144.0305  139.1756  160.8603 C.3     1  UNL1        0.0156
     29 C         142.9110  139.5221  159.0920 C.3     1  UNL1        0.1541
     30 C         142.5828  137.4521  157.5566 C.3     1  UNL1        0.1741
     31 O         143.3498  138.1636  158.6316 O.3     1  UNL1       -0.3501
@<TRIPOS>BOND
     1    30    31    1
     2    31    29    1
     3    29    26    1
     4    26    27    1
     5    26    28    1
     6    26    24    1
     7    24    25    3
     8    25     1    1
     9     1     2   ar
    10     2     3    1
    11     2     4   ar
    12     4     5   ar
    13     5     6    1
    14     5     7   ar
    15     7     8   ar
    16     8    19    1
    17    19    20   am
    18    19    21    2
    19     8     9   ar
    20     9    10   ar
    21    10    11   ar
    22    12    11    1
    23    12    13    1
    24    13    14    1
    25    14    15    1
    26    15    16    1
    27    16    17    1
    28    11     1   ar
    29    17    12    1
    30    10     4   ar
    31    20    22    1
    32    20    23    1
    33    16    18    1
@<TRIPOS>MOLECULE
*****
 31 33 0 0 0
SMALL
GASTEIGER

@<TRIPOS>ATOM
      1 C         140.0875  141.1091  164.6326 C.ar    1  UNL1        0.1143
      2 C         139.3891  140.5442  165.8339 C.ar    1  UNL1        0.0850
      3 CL        138.1353  139.7209  165.8186 Cl      1  UNL1       -0.0799
      4 C         140.1644  140.9472  167.0531 C.ar    1  UNL1        0.0574
      5 C         139.9502  140.6781  168.5131 C.ar    1  UNL1        0.0631
      6 CL        138.7725  139.8641  168.9608 Cl      1  UNL1       -0.0821
      7 C         140.9136  141.2230  169.5254 C.ar    1  UNL1        0.0353
      8 C         142.0913  142.0370  169.0776 C.ar    1  UNL1        0.1366
      9 N         142.3056  142.3061  167.6176 N.ar    1  UNL1       -0.2236
     10 C         141.3421  141.7612  166.6053 C.ar    1  UNL1        0.1460
     11 N         141.2946  141.8612  165.1094 N.ar    1  UNL1       -0.3061
     12 C         142.2810  142.5862  164.2425 C.3     1  UNL1        0.1031
     13 C         142.0459  144.0220  163.8780 C.3     1  UNL1        0.0255
     14 C         143.0323  144.7470  163.0111 C.3     1  UNL1        0.0191
     15 C         144.2538  144.0360  162.5087 C.3     1  UNL1        0.0687
     16 N         144.4889  142.6001  162.8732 N.3     1  UNL1       -0.2959
     17 C         143.5025  141.8751  163.7401 C.3     1  UNL1        0.0914
     18 H         145.3876  142.5617  163.3542 H       1  UNL1        0.1233
     19 C         143.0549  142.5819  170.0900 C.2     1  UNL1        0.2606
     20 N         142.5843  142.8987  171.4786 N.am    1  UNL1       -0.3241
     21 O         144.4889  142.8100  169.7137 O.2     1  UNL1       -0.2687
     22 H         141.6432  142.7490  171.7256 H       1  UNL1        0.1453
     23 H         143.2167  143.2563  172.1430 H       1  UNL1        0.1453
     24 C         139.2223  140.7906  161.7778 C.1     1  UNL1       -0.0844
     25 C         139.6549  140.9499  163.2052 C.1     1  UNL1       -0.0460
     26 C         138.7897  140.6314  160.3504 C.3     1  UNL1        0.0817
     27 C         137.5617  139.8993  160.8042 C.3     1  UNL1        0.0156
     28 C         140.0178  141.3635  159.8965 C.3     1  UNL1        0.0156
     29 C         138.3572  140.4721  158.9230 C.3     1  UNL1        0.1541
     30 C         139.2984  139.4490  156.7282 C.3     1  UNL1        0.1741
     31 O         138.8022  139.2771  158.1333 O.3     1  UNL1       -0.3501
@<TRIPOS>BOND
     1    30    31    1
     2    31    29    1
     3    29    26    1
     4    26    27    1
     5    26    28    1
     6    26    24    1
     7    24    25    3
     8    25     1    1
     9     1     2   ar
    10     2     3    1
    11     2     4   ar
    12     4     5   ar
    13     5     6    1
    14     5     7   ar
    15     7     8   ar
    16     8    19    1
    17    19    20   am
    18    19    21    2
    19     8     9   ar
    20     9    10   ar
    21    10    11   ar
    22    12    11    1
    23    12    13    1
    24    13    14    1
    25    14    15    1
    26    15    16    1
    27    16    17    1
    28    11     1   ar
    29    17    12    1
    30    10     4   ar
    31    20    22    1
    32    20    23    1
    33    16    18    1
@<TRIPOS>MOLECULE
*****
 31 33 0 0 0
SMALL
GASTEIGER

@<TRIPOS>ATOM
      1 C         140.7729  140.3212  165.5103 C.ar    1  UNL1        0.1143
      2 C         139.9836  140.2544  166.7841 C.ar    1  UNL1        0.0850
      3 CL        138.6420  139.6062  166.9570 Cl      1  UNL1       -0.0799
      4 C         140.7714  140.9496  167.8546 C.ar    1  UNL1        0.0574
      5 C         140.4916  141.1947  169.3077 C.ar    1  UNL1        0.0631
      6 CL        139.2154  140.6982  169.9199 Cl      1  UNL1       -0.0821
      7 C         141.4880  141.9362  170.1486 C.ar    1  UNL1        0.0353
      8 C         142.7643  142.4327  169.5364 C.ar    1  UNL1        0.1366
      9 N         143.0441  142.1876  168.0833 N.ar    1  UNL1       -0.2236
     10 C         142.0477  141.4460  167.2424 C.ar    1  UNL1        0.1460
     11 N         142.0485  141.0577  165.7936 N.ar    1  UNL1       -0.3061
     12 C         143.1344  141.3538  164.8021 C.3     1  UNL1        0.1031
     13 C         144.1821  140.3219  164.5066 C.3     1  UNL1        0.0255
     14 C         145.2680  140.6180  163.5151 C.3     1  UNL1        0.0191
     15 C         145.3063  141.9462  162.8190 C.3     1  UNL1        0.0687
     16 N         144.2586  142.9782  163.1145 N.3     1  UNL1       -0.2959
     17 C         143.1727  142.6821  164.1060 C.3     1  UNL1        0.0914
     18 H         143.7989  143.1928  162.2296 H       1  UNL1        0.1233
     19 C         143.7607  143.1743  170.3775 C.2     1  UNL1        0.2606
     20 N         143.2879  144.1144  171.4464 N.am    1  UNL1       -0.3241
     21 O         145.2299  142.9757  170.1495 O.2     1  UNL1       -0.2687
     22 H         142.3236  144.2447  171.5960 H       1  UNL1        0.1453
     23 H         143.9419  144.6011  171.9983 H       1  UNL1        0.1453
     24 C         139.9454  139.1819  162.8613 C.1     1  UNL1       -0.0844
     25 C         140.3591  139.7515  164.1858 C.1     1  UNL1       -0.0460
     26 C         139.5316  138.6122  161.5368 C.3     1  UNL1        0.0817
     27 C         140.9451  138.1800  161.2811 C.3     1  UNL1        0.0156
     28 C         138.1182  139.0445  161.7924 C.3     1  UNL1        0.0156
     29 C         139.1179  138.0426  160.2123 C.3     1  UNL1        0.1541
     30 C         139.2034  139.6263  158.1545 C.3     1  UNL1        0.1741
     31 O         139.7929  138.5025  158.9542 O.3     1  UNL1       -0.3501
@<TRIPOS>BOND
     1    30    31    1
     2    31    29    1
     3    29    26    1
     4    26    27    1
     5    26    28    1
     6    26    24    1
     7    24    25    3
     8    25     1    1
     9     1     2   ar
    10     2     3    1
    11     2     4   ar
    12     4     5   ar
    13     5     6    1
    14     5     7   ar
    15     7     8   ar
    16     8    19    1
    17    19    20   am
    18    19    21    2
    19     8     9   ar
    20     9    10   ar
    21    10    11   ar
    22    12    11    1
    23    12    13    1
    24    13    14    1
    25    14    15    1
    26    15    16    1
    27    16    17    1
    28    11     1   ar
    29    17    12    1
    30    10     4   ar
    31    20    22    1
    32    20    23    1
    33    16    18    1
@<TRIPOS>MOLECULE
*****
 31 33 0 0 0
SMALL
GASTEIGER

@<TRIPOS>ATOM
      1 C         140.9408  139.4501  164.4068 C.ar    1  UNL1        0.1143
      2 C         139.7434  138.9946  165.1869 C.ar    1  UNL1        0.0850
      3 CL        138.6679  138.0728  164.6932 Cl      1  UNL1       -0.0799
      4 C         139.8101  139.6227  166.5474 C.ar    1  UNL1        0.0574
      5 C         138.9030  139.5354  167.7388 C.ar    1  UNL1        0.0631
      6 CL        137.6643  138.6917  167.6781 Cl      1  UNL1       -0.0821
      7 C         139.2346  140.2918  168.9910 C.ar    1  UNL1        0.0353
      8 C         140.4734  141.1355  169.0517 C.ar    1  UNL1        0.1366
      9 N         141.3805  141.2229  167.8603 N.ar    1  UNL1       -0.2236
     10 C         141.0488  140.4665  166.6082 C.ar    1  UNL1        0.1460
     11 N         141.7476  140.3598  165.2851 N.ar    1  UNL1       -0.3061
     12 C         143.0284  141.0429  164.9069 C.3     1  UNL1        0.1031
     13 C         144.1986  140.2332  164.4327 C.3     1  UNL1        0.0255
     14 C         145.4794  140.9163  164.0545 C.3     1  UNL1        0.0191
     15 C         145.5899  142.4091  164.1505 C.3     1  UNL1        0.0687
     16 N         144.4197  143.2189  164.6248 N.3     1  UNL1       -0.2959
     17 C         143.1389  142.5358  165.0030 C.3     1  UNL1        0.0914
     18 H         144.1938  143.8754  163.8775 H       1  UNL1        0.1233
     19 C         140.8050  141.8920  170.3039 C.2     1  UNL1        0.2606
     20 N         141.3476  143.2876  170.2156 N.am    1  UNL1       -0.3241
     21 O         140.5939  141.2527  171.6443 O.2     1  UNL1       -0.2687
     22 H         141.4861  143.7071  169.3358 H       1  UNL1        0.1453
     23 H         141.5652  143.7840  171.0374 H       1  UNL1        0.1453
     24 C         141.6053  138.6775  161.5851 C.1     1  UNL1       -0.0844
     25 C         141.2730  139.0638  162.9960 C.1     1  UNL1       -0.0460
     26 C         141.9376  138.2912  160.1743 C.3     1  UNL1        0.0817
     27 C         140.6223  138.8454  159.7128 C.3     1  UNL1        0.0156
     28 C         143.2529  137.7371  160.6358 C.3     1  UNL1        0.0156
     29 C         142.2698  137.9049  158.7635 C.3     1  UNL1        0.1541
     30 C         143.1819  139.1895  156.6976 C.3     1  UNL1        0.1741
     31 O         143.4042  138.5777  158.0490 O.3     1  UNL1       -0.3501
@<TRIPOS>BOND
     1    30    31    1
     2    31    29    1
     3    29    26    1
     4    26    27    1
     5    26    28    1
     6    26    24    1
     7    24    25    3
     8    25     1    1
     9     1     2   ar
    10     2     3    1
    11     2     4   ar
    12     4     5   ar
    13     5     6    1
    14     5     7   ar
    15     7     8   ar
    16     8    19    1
    17    19    20   am
    18    19    21    2
    19     8     9   ar
    20     9    10   ar
    21    10    11   ar
    22    12    11    1
    23    12    13    1
    24    13    14    1
    25    14    15    1
    26    15    16    1
    27    16    17    1
    28    11     1   ar
    29    17    12    1
    30    10     4   ar
    31    20    22    1
    32    20    23    1
    33    16    18    1
@<TRIPOS>MOLECULE
*****
 31 33 0 0 0
SMALL
GASTEIGER

@<TRIPOS>ATOM
      1 C         140.5878  142.6315  164.6245 C.ar    1  UNL1        0.1143
      2 C         140.8220  143.7371  163.6382 C.ar    1  UNL1        0.0850
      3 CL        141.4623  145.0610  163.9333 Cl      1  UNL1       -0.0799
      4 C         140.3034  143.2863  162.3048 C.ar    1  UNL1        0.0574
      5 C         140.2647  143.9574  160.9639 C.ar    1  UNL1        0.0631
      6 CL        140.8193  145.3416  160.8016 Cl      1  UNL1       -0.0821
      7 C         139.6712  143.2443  159.7853 C.ar    1  UNL1        0.0353
      8 C         139.1165  141.8601  159.9475 C.ar    1  UNL1        0.1366
      9 N         139.1553  141.1890  161.2884 N.ar    1  UNL1       -0.2236
     10 C         139.7488  141.9021  162.4671 C.ar    1  UNL1        0.1460
     11 N         139.9245  141.4975  163.9007 N.ar    1  UNL1       -0.3061
     12 C         139.5098  140.1885  164.5046 C.3     1  UNL1        0.1031
     13 C         138.4218  140.1497  165.5364 C.3     1  UNL1        0.0255
     14 C         138.0071  138.8407  166.1402 C.3     1  UNL1        0.0191
     15 C         138.6804  137.5705  165.7122 C.3     1  UNL1        0.0687
     16 N         139.7684  137.6092  164.6804 N.3     1  UNL1       -0.2959
     17 C         140.1831  138.9182  164.0765 C.3     1  UNL1        0.0914
     18 H         139.4654  137.0126  163.9105 H       1  UNL1        0.1233
     19 C         138.5230  141.1469  158.7688 C.2     1  UNL1        0.2606
     20 N         137.4746  140.0950  158.9787 N.am    1  UNL1       -0.3241
     21 O         138.9780  141.4859  157.3802 O.2     1  UNL1       -0.2687
     22 H         137.1760  139.8725  159.8900 H       1  UNL1        0.1453
     23 H         137.0851  139.6270  158.2051 H       1  UNL1        0.1453
     24 C         141.3179  142.6801  167.5339 C.1     1  UNL1       -0.0844
     25 C         140.9529  142.6558  166.0792 C.1     1  UNL1       -0.0460
     26 C         141.6829  142.7043  168.9886 C.3     1  UNL1        0.0817
     27 C         140.4049  143.4263  169.2973 C.3     1  UNL1        0.0156
     28 C         142.9610  141.9823  168.6800 C.3     1  UNL1        0.0156
     29 C         142.0480  142.7286  170.4433 C.3     1  UNL1        0.1541
     30 C         140.8792  140.6189  171.4092 C.3     1  UNL1        0.1741
     31 O         141.1396  142.0954  171.4552 O.3     1  UNL1       -0.3501
@<TRIPOS>BOND
     1    30    31    1
     2    31    29    1
     3    29    26    1
     4    26    27    1
     5    26    28    1
     6    26    24    1
     7    24    25    3
     8    25     1    1
     9     1     2   ar
    10     2     3    1
    11     2     4   ar
    12     4     5   ar
    13     5     6    1
    14     5     7   ar
    15     7     8   ar
    16     8    19    1
    17    19    20   am
    18    19    21    2
    19     8     9   ar
    20     9    10   ar
    21    10    11   ar
    22    12    11    1
    23    12    13    1
    24    13    14    1
    25    14    15    1
    26    15    16    1
    27    16    17    1
    28    11     1   ar
    29    17    12    1
    30    10     4   ar
    31    20    22    1
    32    20    23    1
    33    16    18    1
@<TRIPOS>MOLECULE
*****
 31 33 0 0 0
SMALL
GASTEIGER

@<TRIPOS>ATOM
      1 C         139.9803  140.7337  165.8038 C.ar    1  UNL1        0.1143
      2 C         139.5868  140.2457  167.1665 C.ar    1  UNL1        0.0850
      3 CL        138.4655  139.2980  167.4738 Cl      1  UNL1       -0.0799
      4 C         140.5114  140.8718  168.1681 C.ar    1  UNL1        0.0574
      5 C         140.5993  140.7582  169.6612 C.ar    1  UNL1        0.0631
      6 CL        139.6343  139.8832  170.4049 Cl      1  UNL1       -0.0821
      7 C         141.6523  141.5196  170.4105 C.ar    1  UNL1        0.0353
      8 C         142.6173  142.3946  169.6668 C.ar    1  UNL1        0.1366
      9 N         142.5294  142.5082  168.1737 N.ar    1  UNL1       -0.2236
     10 C         141.4765  141.7468  167.4244 C.ar    1  UNL1        0.1460
     11 N         141.1482  141.6614  165.9632 N.ar    1  UNL1       -0.3061
     12 C         141.8625  142.3780  164.8558 C.3     1  UNL1        0.1031
     13 C         142.8899  141.6562  164.0354 C.3     1  UNL1        0.0255
     14 C         143.6042  142.3728  162.9280 C.3     1  UNL1        0.0191
     15 C         143.2910  143.8113  162.6410 C.3     1  UNL1        0.0687
     16 N         142.2635  144.5333  163.4614 N.3     1  UNL1       -0.2959
     17 C         141.5492  143.8167  164.5688 C.3     1  UNL1        0.0914
     18 H         141.5475  144.8622  162.8136 H       1  UNL1        0.1233
     19 C         143.6703  143.1560  170.4162 C.2     1  UNL1        0.2606
     20 N         145.1154  142.7835  170.2653 N.am    1  UNL1       -0.3241
     21 O         143.2780  144.2898  171.3165 O.2     1  UNL1       -0.2687
     22 H         145.3729  142.0393  169.6744 H       1  UNL1        0.1453
     23 H         145.8065  143.2833  170.7572 H       1  UNL1        0.1453
     24 C         138.6629  139.9857  163.2144 C.1     1  UNL1       -0.0844
     25 C         139.3216  140.3597  164.5091 C.1     1  UNL1       -0.0460
     26 C         138.0043  139.6117  161.9197 C.3     1  UNL1        0.0817
     27 C         138.2963  138.1652  162.1891 C.3     1  UNL1        0.0156
     28 C         137.7123  141.0581  161.6504 C.3     1  UNL1        0.0156
     29 C         137.3456  139.2377  160.6250 C.3     1  UNL1        0.1541
     30 C         139.0548  139.4528  158.6803 C.3     1  UNL1        0.1741
     31 O         137.7829  139.8876  159.3459 O.3     1  UNL1       -0.3501
@<TRIPOS>BOND
     1    30    31    1
     2    31    29    1
     3    29    26    1
     4    26    27    1
     5    26    28    1
     6    26    24    1
     7    24    25    3
     8    25     1    1
     9     1     2   ar
    10     2     3    1
    11     2     4   ar
    12     4     5   ar
    13     5     6    1
    14     5     7   ar
    15     7     8   ar
    16     8    19    1
    17    19    20   am
    18    19    21    2
    19     8     9   ar
    20     9    10   ar
    21    10    11   ar
    22    12    11    1
    23    12    13    1
    24    13    14    1
    25    14    15    1
    26    15    16    1
    27    16    17    1
    28    11     1   ar
    29    17    12    1
    30    10     4   ar
    31    20    22    1
    32    20    23    1
    33    16    18    1
@<TRIPOS>MOLECULE
*****
 31 33 0 0 0
SMALL
GASTEIGER

@<TRIPOS>ATOM
      1 C         140.7592  140.9402  164.8914 C.ar    1  UNL1        0.1143
      2 C         139.8963  139.7442  164.6175 C.ar    1  UNL1        0.0850
      3 CL        139.2126  138.8956  165.6483 Cl      1  UNL1       -0.0799
      4 C         139.8370  139.5458  163.1319 C.ar    1  UNL1        0.0574
      5 C         139.1374  138.5264  162.2825 C.ar    1  UNL1        0.0631
      6 CL        138.3110  137.4531  162.9268 Cl      1  UNL1       -0.0821
      7 C         139.2641  138.5804  160.7889 C.ar    1  UNL1        0.0353
      8 C         140.0904  139.6538  160.1446 C.ar    1  UNL1        0.1366
      9 N         140.7900  140.6731  160.9939 N.ar    1  UNL1       -0.2236
     10 C         140.6633  140.6191  162.4876 C.ar    1  UNL1        0.1460
     11 N         141.2332  141.4809  163.5750 N.ar    1  UNL1       -0.3061
     12 C         142.1213  142.6739  163.3802 C.3     1  UNL1        0.1031
     13 C         143.4009  142.7908  164.1540 C.3     1  UNL1        0.0255
     14 C         144.2890  143.9838  163.9593 C.3     1  UNL1        0.0191
     15 C         143.8975  145.0601  162.9906 C.3     1  UNL1        0.0687
     16 N         142.6179  144.9433  162.2168 N.3     1  UNL1       -0.2959
     17 C         141.7298  143.7503  162.4115 C.3     1  UNL1        0.0914
     18 H         142.8685  144.9656  161.2283 H       1  UNL1        0.1233
     19 C         140.2170  139.7077  158.6509 C.2     1  UNL1        0.2606
     20 N         139.1730  139.0661  157.7860 N.am    1  UNL1       -0.3241
     21 O         141.3878  140.4034  158.0221 O.2     1  UNL1       -0.2687
     22 H         138.4046  138.6095  158.1987 H       1  UNL1        0.1453
     23 H         139.2561  139.1015  156.8056 H       1  UNL1        0.1453
     24 C         141.4208  142.0549  167.5969 C.1     1  UNL1       -0.0844
     25 C         141.0900  141.4975  166.2442 C.1     1  UNL1       -0.0460
     26 C         141.7516  142.6122  168.9497 C.3     1  UNL1        0.0817
     27 C         140.3433  143.1097  169.0890 C.3     1  UNL1        0.0156
     28 C         143.1598  142.1148  168.8103 C.3     1  UNL1        0.0156
     29 C         142.0824  143.1696  170.3024 C.3     1  UNL1        0.1541
     30 C         141.3886  140.9585  171.4770 C.3     1  UNL1        0.1741
     31 O         141.6663  142.4312  171.5400 O.3     1  UNL1       -0.3501
@<TRIPOS>BOND
     1    30    31    1
     2    31    29    1
     3    29    26    1
     4    26    27    1
     5    26    28    1
     6    26    24    1
     7    24    25    3
     8    25     1    1
     9     1     2   ar
    10     2     3    1
    11     2     4   ar
    12     4     5   ar
    13     5     6    1
    14     5     7   ar
    15     7     8   ar
    16     8    19    1
    17    19    20   am
    18    19    21    2
    19     8     9   ar
    20     9    10   ar
    21    10    11   ar
    22    12    11    1
    23    12    13    1
    24    13    14    1
    25    14    15    1
    26    15    16    1
    27    16    17    1
    28    11     1   ar
    29    17    12    1
    30    10     4   ar
    31    20    22    1
    32    20    23    1
    33    16    18    1
@<TRIPOS>MOLECULE
*****
 31 33 0 0 0
SMALL
GASTEIGER

@<TRIPOS>ATOM
      1 C         140.2185  140.9482  163.9820 C.ar    1  UNL1        0.1143
      2 C         139.3190  139.9701  164.6778 C.ar    1  UNL1        0.0850
      3 CL        138.4592  138.9360  164.0134 Cl      1  UNL1       -0.0799
      4 C         139.4300  140.2077  166.1547 C.ar    1  UNL1        0.0574
      5 C         138.7746  139.5450  167.3300 C.ar    1  UNL1        0.0631
      6 CL        137.8064  138.4201  167.1130 Cl      1  UNL1       -0.0821
      7 C         139.0875  140.0072  168.7222 C.ar    1  UNL1        0.0353
      8 C         140.0558  141.1321  168.9392 C.ar    1  UNL1        0.1366
      9 N         140.7112  141.7948  167.7640 N.ar    1  UNL1       -0.2236
     10 C         140.3983  141.3326  166.3717 C.ar    1  UNL1        0.1460
     11 N         140.8856  141.7902  165.0289 N.ar    1  UNL1       -0.3061
     12 C         141.8676  142.8958  164.7772 C.3     1  UNL1        0.1031
     13 C         141.4174  144.1613  164.1097 C.3     1  UNL1        0.0255
     14 C         142.3994  145.2669  163.8580 C.3     1  UNL1        0.0191
     15 C         143.8317  145.1070  164.2739 C.3     1  UNL1        0.0687
     16 N         144.2820  143.8415  164.9415 N.3     1  UNL1       -0.2959
     17 C         143.3000  142.7359  165.1932 C.3     1  UNL1        0.0914
     18 H         144.6649  144.1073  165.8487 H       1  UNL1        0.1233
     19 C         140.3686  141.5943  170.3316 C.2     1  UNL1        0.2606
     20 N         140.5087  140.5938  171.4403 N.am    1  UNL1       -0.3241
     21 O         140.5413  143.0571  170.6151 O.2     1  UNL1       -0.2687
     22 H         140.3953  139.6337  171.2541 H       1  UNL1        0.1453
     23 H         140.7140  140.8972  172.3541 H       1  UNL1        0.1453
     24 C         140.6141  141.1796  161.0172 C.1     1  UNL1       -0.0844
     25 C         140.4163  141.0639  162.4996 C.1     1  UNL1       -0.0460
     26 C         140.8119  141.2954  159.5348 C.3     1  UNL1        0.0817
     27 C         140.3604  139.8752  159.3637 C.3     1  UNL1        0.0156
     28 C         141.2634  142.7155  159.7059 C.3     1  UNL1        0.0156
     29 C         141.0097  141.4111  158.0524 C.3     1  UNL1        0.1541
     30 C         139.9425  142.6543  156.0361 C.3     1  UNL1        0.1741
     31 O         140.6690  142.6908  157.3480 O.3     1  UNL1       -0.3501
@<TRIPOS>BOND
     1    30    31    1
     2    31    29    1
     3    29    26    1
     4    26    27    1
     5    26    28    1
     6    26    24    1
     7    24    25    3
     8    25     1    1
     9     1     2   ar
    10     2     3    1
    11     2     4   ar
    12     4     5   ar
    13     5     6    1
    14     5     7   ar
    15     7     8   ar
    16     8    19    1
    17    19    20   am
    18    19    21    2
    19     8     9   ar
    20     9    10   ar
    21    10    11   ar
    22    12    11    1
    23    12    13    1
    24    13    14    1
    25    14    15    1
    26    15    16    1
    27    16    17    1
    28    11     1   ar
    29    17    12    1
    30    10     4   ar
    31    20    22    1
    32    20    23    1
    33    16    18    1
