@<TRIPOS>MOLECULE
*****
 41 46 0 0 0
SMALL
GASTEIGER

@<TRIPOS>ATOM
      1 C         143.9374  140.9482  162.2521 C.3     1  UNL1        0.0319
      2 C         144.0965  141.0233  160.7625 C.3     1  UNL1        0.0205
      3 C         144.0661  139.7688  159.9407 C.3     1  UNL1        0.0546
      4 C         143.8767  138.4391  160.6087 C.3     1  UNL1        0.0162
      5 C         143.7176  138.3639  162.0983 C.3     1  UNL1        0.0108
      6 C         143.7479  139.6185  162.9200 C.3     1  UNL1        0.0808
      7 C         142.0323  143.1849  161.6458 C.3     1  UNL1        0.0307
      8 C         143.0152  143.3211  162.7706 C.ar    1  UNL1       -0.0258
      9 C         143.0456  144.5756  163.5923 C.ar    1  UNL1       -0.0046
     10 C         144.0285  144.7118  164.7172 C.ar    1  UNL1       -0.0003
     11 C         144.9810  143.5934  165.0204 C.ar    1  UNL1       -0.0003
     12 C         144.9506  142.3389  164.1987 C.ar    1  UNL1       -0.0046
     13 C         143.9677  142.2027  163.0738 C.ar    1  UNL1       -0.0259
     14 C         143.5888  139.5434  164.4097 C.2     1  UNL1        0.2255
     15 O         144.5384  138.7163  165.2246 O.2     1  UNL1       -0.2749
     16 N         142.4801  140.2954  165.0844 N.am    1  UNL1       -0.2781
     17 C         141.3734  141.1954  164.6207 C.3     1  UNL1        0.1031
     18 C         140.9121  141.3589  166.0386 C.3     1  UNL1        0.0742
     19 C         142.0188  140.4588  166.5023 C.3     1  UNL1        0.1031
     20 C         140.4509  141.5223  167.4565 C.ar    1  UNL1       -0.0158
     21 C         139.6624  140.4317  168.1191 C.ar    1  UNL1       -0.0039
     22 C         139.2011  140.5951  169.5371 C.ar    1  UNL1       -0.0003
     23 C         139.5283  141.8490  170.2924 C.ar    1  UNL1       -0.0000
     24 C         140.3168  142.9396  169.6298 C.ar    1  UNL1       -0.0003
     25 C         140.7781  142.7763  168.2119 C.ar    1  UNL1       -0.0039
     26 C         139.8054  142.2589  165.5748 C.ar    1  UNL1       -0.0158
     27 C         138.5617  141.6714  164.9765 C.ar    1  UNL1       -0.0039
     28 C         137.4550  142.5715  164.5127 C.ar    1  UNL1       -0.0003
     29 C         137.5921  144.0591  164.6473 C.ar    1  UNL1       -0.0000
     30 C         138.8358  144.6467  165.2456 C.ar    1  UNL1       -0.0003
     31 C         139.9425  143.7466  165.7094 C.ar    1  UNL1       -0.0039
     32 N         144.2252  139.8439  158.4511 N.3     1  UNL1       -0.2948
     33 H         144.6615  138.9700  158.1571 H       1  UNL1        0.1235
     34 C         143.0223  140.0427  157.5774 C.3     1  UNL1        0.0956
     35 C         141.6474  140.0146  158.1765 C.ar    1  UNL1       -0.0063
     36 C         140.9764  141.2957  158.5746 C.ar    1  UNL1       -0.0021
     37 C         139.6015  141.2676  159.1737 C.ar    1  UNL1        0.0111
     38 C         138.8976  139.9583  159.3745 C.ar    1  UNL1        0.0577
     39 CL        137.5227  139.9302  159.9735 Cl      1  UNL1       -0.0822
     40 C         139.5685  138.6772  158.9763 C.ar    1  UNL1        0.0111
     41 C         140.9434  138.7054  158.3773 C.ar    1  UNL1       -0.0021
@<TRIPOS>BOND
     1     7     8    1
     2     8     9   ar
     3     9    10   ar
     4    10    11   ar
     5    11    12   ar
     6    12    13   ar
     7     1    13    1
     8     1     2    1
     9     2     3    1
    10     3    32    1
    11    32    34    1
    12    34    35    1
    13    35    36   ar
    14    36    37   ar
    15    37    38   ar
    16    38    39    1
    17    38    40   ar
    18    40    41   ar
    19     3     4    1
    20     4     5    1
    21     5     6    1
    22     6    14    1
    23    14    15    2
    24    14    16   am
    25    16    17    1
    26    17    18    1
    27    18    20    1
    28    20    21   ar
    29    21    22   ar
    30    22    23   ar
    31    23    24   ar
    32    24    25   ar
    33    18    26    1
    34    26    27   ar
    35    27    28   ar
    36    28    29   ar
    37    29    30   ar
    38    30    31   ar
    39    18    19    1
    40    13     8   ar
    41     6     1    1
    42    19    16    1
    43    41    35   ar
    44    25    20   ar
    45    31    26   ar
    46    32    33    1
@<TRIPOS>MOLECULE
*****
 41 46 0 0 0
SMALL
GASTEIGER

@<TRIPOS>ATOM
      1 C         144.2678  141.7978  160.9404 C.3     1  UNL1        0.0319
      2 C         144.7066  142.6082  159.7569 C.3     1  UNL1        0.0205
      3 C         144.5730  142.0467  158.3724 C.3     1  UNL1        0.0546
      4 C         144.0006  140.6748  158.1714 C.3     1  UNL1        0.0162
      5 C         143.5618  139.8644  159.3550 C.3     1  UNL1        0.0108
      6 C         143.6955  140.4260  160.7395 C.3     1  UNL1        0.0808
      7 C         142.6326  144.1761  161.7589 C.3     1  UNL1        0.0307
      8 C         143.5839  143.5485  162.7342 C.ar    1  UNL1       -0.0258
      9 C         143.7176  144.1100  164.1186 C.ar    1  UNL1       -0.0046
     10 C         144.6688  143.4823  165.0939 C.ar    1  UNL1       -0.0003
     11 C         145.4864  142.2932  164.6847 C.ar    1  UNL1       -0.0003
     12 C         145.3527  141.7317  163.3003 C.ar    1  UNL1       -0.0046
     13 C         144.4015  142.3594  162.3250 C.ar    1  UNL1       -0.0259
     14 C         143.2567  139.6156  161.9231 C.2     1  UNL1        0.2255
     15 O         143.9400  138.3180  162.2385 O.2     1  UNL1       -0.2749
     16 N         142.1347  140.1029  162.7913 N.am    1  UNL1       -0.2781
     17 C         141.2416  141.3079  162.7933 C.3     1  UNL1        0.1031
     18 C         140.5480  140.7919  164.0192 C.3     1  UNL1        0.0742
     19 C         141.4412  139.5868  164.0172 C.3     1  UNL1        0.1031
     20 C         139.8545  140.2759  165.2449 C.ar    1  UNL1       -0.0158
     21 C         138.6595  139.3794  165.1093 C.ar    1  UNL1       -0.0039
     22 C         137.9660  138.8634  166.3351 C.ar    1  UNL1       -0.0003
     23 C         138.4674  139.2438  167.6966 C.ar    1  UNL1       -0.0000
     24 C         139.6624  140.1402  167.8324 C.ar    1  UNL1       -0.0003
     25 C         140.3560  140.6563  166.6065 C.ar    1  UNL1       -0.0039
     26 C         139.6548  141.9970  164.0211 C.ar    1  UNL1       -0.0158
     27 C         140.0566  143.2271  164.7797 C.ar    1  UNL1       -0.0039
     28 C         139.1634  144.4322  164.7816 C.ar    1  UNL1       -0.0003
     29 C         137.8685  144.4071  164.0248 C.ar    1  UNL1       -0.0000
     30 C         137.4668  143.1770  163.2662 C.ar    1  UNL1       -0.0003
     31 C         138.3600  141.9719  163.2643 C.ar    1  UNL1       -0.0039
     32 N         145.0117  142.8570  157.1888 N.3     1  UNL1       -0.2948
     33 H         145.8671  143.3400  157.4634 H       1  UNL1        0.1235
     34 C         145.2973  142.1805  155.8809 C.3     1  UNL1        0.0956
     35 C         146.5290  142.5398  155.1039 C.ar    1  UNL1       -0.0063
     36 C         147.7953  141.7607  155.3031 C.ar    1  UNL1       -0.0021
     37 C         149.0270  142.1200  154.5260 C.ar    1  UNL1        0.0111
     38 C         148.9923  143.2584  153.5497 C.ar    1  UNL1        0.0577
     39 CL        150.2240  143.6177  152.7726 Cl      1  UNL1       -0.0822
     40 C         147.7261  144.0373  153.3505 C.ar    1  UNL1        0.0111
     41 C         146.4944  143.6780  154.1276 C.ar    1  UNL1       -0.0021
@<TRIPOS>BOND
     1     7     8    1
     2     8     9   ar
     3     9    10   ar
     4    10    11   ar
     5    11    12   ar
     6    12    13   ar
     7     1    13    1
     8     1     2    1
     9     2     3    1
    10     3    32    1
    11    32    34    1
    12    34    35    1
    13    35    36   ar
    14    36    37   ar
    15    37    38   ar
    16    38    39    1
    17    38    40   ar
    18    40    41   ar
    19     3     4    1
    20     4     5    1
    21     5     6    1
    22     6    14    1
    23    14    15    2
    24    14    16   am
    25    16    17    1
    26    17    18    1
    27    18    20    1
    28    20    21   ar
    29    21    22   ar
    30    22    23   ar
    31    23    24   ar
    32    24    25   ar
    33    18    26    1
    34    26    27   ar
    35    27    28   ar
    36    28    29   ar
    37    29    30   ar
    38    30    31   ar
    39    18    19    1
    40    13     8   ar
    41     6     1    1
    42    19    16    1
    43    41    35   ar
    44    25    20   ar
    45    31    26   ar
    46    32    33    1
@<TRIPOS>MOLECULE
*****
 41 46 0 0 0
SMALL
GASTEIGER

@<TRIPOS>ATOM
      1 C         143.8614  140.8778  162.1995 C.3     1  UNL1        0.0319
      2 C         144.0017  140.9384  160.7073 C.3     1  UNL1        0.0205
      3 C         143.9615  139.6759  159.8984 C.3     1  UNL1        0.0546
      4 C         143.7812  138.3527  160.5816 C.3     1  UNL1        0.0162
      5 C         143.6409  138.2921  162.0738 C.3     1  UNL1        0.0108
      6 C         143.6811  139.5547  162.8828 C.3     1  UNL1        0.0808
      7 C         141.9313  143.0980  161.6117 C.3     1  UNL1        0.0307
      8 C         142.9366  143.2504  162.7146 C.ar    1  UNL1       -0.0258
      9 C         142.9767  144.5130  163.5235 C.ar    1  UNL1       -0.0046
     10 C         143.9819  144.6654  164.6264 C.ar    1  UNL1       -0.0003
     11 C         144.9470  143.5553  164.9203 C.ar    1  UNL1       -0.0003
     12 C         144.9068  142.2928  164.1114 C.ar    1  UNL1       -0.0046
     13 C         143.9016  142.1404  163.0085 C.ar    1  UNL1       -0.0259
     14 C         143.5408  139.4941  164.3750 C.2     1  UNL1        0.2255
     15 O         144.4951  138.6676  165.1850 O.2     1  UNL1       -0.2749
     16 N         142.4463  140.2602  165.0572 N.am    1  UNL1       -0.2781
     17 C         141.3402  141.1640  164.5997 C.3     1  UNL1        0.1031
     18 C         140.8985  141.3435  166.0219 C.3     1  UNL1        0.0742
     19 C         142.0048  140.4396  166.4794 C.3     1  UNL1        0.1031
     20 C         140.4569  141.5229  167.4441 C.ar    1  UNL1       -0.0158
     21 C         139.6591  140.4493  168.1229 C.ar    1  UNL1       -0.0039
     22 C         139.2175  140.6288  169.5452 C.ar    1  UNL1       -0.0003
     23 C         139.5737  141.8818  170.2886 C.ar    1  UNL1       -0.0000
     24 C         140.3716  142.9555  169.6099 C.ar    1  UNL1       -0.0003
     25 C         140.8132  142.7761  168.1876 C.ar    1  UNL1       -0.0039
     26 C         139.7923  142.2473  165.5643 C.ar    1  UNL1       -0.0158
     27 C         139.9242  143.7332  165.7217 C.ar    1  UNL1       -0.0039
     28 C         138.8179  144.6370  165.2641 C.ar    1  UNL1       -0.0003
     29 C         137.5798  144.0548  164.6491 C.ar    1  UNL1       -0.0000
     30 C         137.4479  142.5689  164.4918 C.ar    1  UNL1       -0.0003
     31 C         138.5542  141.6652  164.9494 C.ar    1  UNL1       -0.0039
     32 N         144.1018  139.7365  158.4062 N.3     1  UNL1       -0.2948
     33 H         143.3047  139.2344  158.0149 H       1  UNL1        0.1235
     34 C         144.1602  141.0647  157.7117 C.3     1  UNL1        0.0956
     35 C         145.3370  141.4079  156.8473 C.ar    1  UNL1       -0.0063
     36 C         145.5168  140.7299  155.5213 C.ar    1  UNL1       -0.0021
     37 C         146.6936  141.0732  154.6569 C.ar    1  UNL1        0.0111
     38 C         147.6907  142.0945  155.1185 C.ar    1  UNL1        0.0577
     39 CL        148.8675  142.4378  154.2541 Cl      1  UNL1       -0.0822
     40 C         147.5109  142.7725  156.4443 C.ar    1  UNL1        0.0111
     41 C         146.3340  142.4292  157.3087 C.ar    1  UNL1       -0.0021
@<TRIPOS>BOND
     1     7     8    1
     2     8     9   ar
     3     9    10   ar
     4    10    11   ar
     5    11    12   ar
     6    12    13   ar
     7     1    13    1
     8     1     2    1
     9     2     3    1
    10     3    32    1
    11    32    34    1
    12    34    35    1
    13    35    36   ar
    14    36    37   ar
    15    37    38   ar
    16    38    39    1
    17    38    40   ar
    18    40    41   ar
    19     3     4    1
    20     4     5    1
    21     5     6    1
    22     6    14    1
    23    14    15    2
    24    14    16   am
    25    16    17    1
    26    17    18    1
    27    18    20    1
    28    20    21   ar
    29    21    22   ar
    30    22    23   ar
    31    23    24   ar
    32    24    25   ar
    33    18    26    1
    34    26    27   ar
    35    27    28   ar
    36    28    29   ar
    37    29    30   ar
    38    30    31   ar
    39    18    19    1
    40    13     8   ar
    41     6     1    1
    42    19    16    1
    43    41    35   ar
    44    25    20   ar
    45    31    26   ar
    46    32    33    1
@<TRIPOS>MOLECULE
*****
 41 46 0 0 0
SMALL
GASTEIGER

@<TRIPOS>ATOM
      1 C         143.8467  140.7795  162.2574 C.3     1  UNL1        0.0319
      2 C         144.0043  140.8463  160.7672 C.3     1  UNL1        0.0205
      3 C         143.9285  139.5921  159.9480 C.3     1  UNL1        0.0546
      4 C         143.6951  138.2709  160.6191 C.3     1  UNL1        0.0162
      5 C         143.5376  138.2041  162.1093 C.3     1  UNL1        0.0108
      6 C         143.6134  139.4585  162.9284 C.3     1  UNL1        0.0808
      7 C         141.9584  143.0454  161.7094 C.3     1  UNL1        0.0307
      8 C         142.9784  143.1668  162.8025 C.ar    1  UNL1       -0.0258
      9 C         143.0542  144.4210  163.6217 C.ar    1  UNL1       -0.0046
     10 C         144.0742  144.5424  164.7148 C.ar    1  UNL1       -0.0003
     11 C         145.0183  143.4095  164.9888 C.ar    1  UNL1       -0.0003
     12 C         144.9425  142.1552  164.1696 C.ar    1  UNL1       -0.0046
     13 C         143.9225  142.0339  163.0765 C.ar    1  UNL1       -0.0259
     14 C         143.4558  139.3917  164.4186 C.2     1  UNL1        0.2255
     15 O         144.3804  138.5362  165.2330 O.2     1  UNL1       -0.2749
     16 N         142.3736  140.1805  165.0945 N.am    1  UNL1       -0.2781
     17 C         141.2954  141.1147  164.6316 C.3     1  UNL1        0.1031
     18 C         140.8433  141.2959  166.0504 C.3     1  UNL1        0.0742
     19 C         141.9216  140.3617  166.5133 C.3     1  UNL1        0.1031
     20 C         140.3912  141.4771  167.4690 C.ar    1  UNL1       -0.0158
     21 C         139.5865  140.4053  168.1425 C.ar    1  UNL1       -0.0039
     22 C         139.1345  140.5865  169.5613 C.ar    1  UNL1       -0.0003
     23 C         139.4871  141.8395  170.3065 C.ar    1  UNL1       -0.0000
     24 C         140.2919  142.9114  169.6331 C.ar    1  UNL1       -0.0003
     25 C         140.7440  142.7302  168.2144 C.ar    1  UNL1       -0.0039
     26 C         139.7649  142.2302  165.5874 C.ar    1  UNL1       -0.0158
     27 C         138.5070  141.6822  164.9813 C.ar    1  UNL1       -0.0039
     28 C         137.4287  142.6166  164.5183 C.ar    1  UNL1       -0.0003
     29 C         137.6084  144.0989  164.6615 C.ar    1  UNL1       -0.0000
     30 C         138.8663  144.6469  165.2676 C.ar    1  UNL1       -0.0003
     31 C         139.9446  143.7125  165.7306 C.ar    1  UNL1       -0.0039
     32 N         144.0860  139.6588  158.4578 N.3     1  UNL1       -0.2948
     33 H         144.3553  138.7251  158.1480 H       1  UNL1        0.1235
     34 C         142.9312  140.0834  157.5998 C.3     1  UNL1        0.0956
     35 C         142.2725  141.4108  157.8320 C.ar    1  UNL1       -0.0063
     36 C         143.0666  142.6762  157.6960 C.ar    1  UNL1       -0.0021
     37 C         142.4079  144.0036  157.9282 C.ar    1  UNL1        0.0111
     38 C         140.9550  144.0658  158.2965 C.ar    1  UNL1        0.0577
     39 CL        140.2963  145.3932  158.5287 Cl      1  UNL1       -0.0822
     40 C         140.1610  142.8005  158.4325 C.ar    1  UNL1        0.0111
     41 C         140.8198  141.4730  158.2003 C.ar    1  UNL1       -0.0021
@<TRIPOS>BOND
     1     7     8    1
     2     8     9   ar
     3     9    10   ar
     4    10    11   ar
     5    11    12   ar
     6    12    13   ar
     7     1    13    1
     8     1     2    1
     9     2     3    1
    10     3    32    1
    11    32    34    1
    12    34    35    1
    13    35    36   ar
    14    36    37   ar
    15    37    38   ar
    16    38    39    1
    17    38    40   ar
    18    40    41   ar
    19     3     4    1
    20     4     5    1
    21     5     6    1
    22     6    14    1
    23    14    15    2
    24    14    16   am
    25    16    17    1
    26    17    18    1
    27    18    20    1
    28    20    21   ar
    29    21    22   ar
    30    22    23   ar
    31    23    24   ar
    32    24    25   ar
    33    18    26    1
    34    26    27   ar
    35    27    28   ar
    36    28    29   ar
    37    29    30   ar
    38    30    31   ar
    39    18    19    1
    40    13     8   ar
    41     6     1    1
    42    19    16    1
    43    41    35   ar
    44    25    20   ar
    45    31    26   ar
    46    32    33    1
@<TRIPOS>MOLECULE
*****
 41 46 0 0 0
SMALL
GASTEIGER

@<TRIPOS>ATOM
      1 C         143.8343  140.7539  162.2182 C.3     1  UNL1        0.0319
      2 C         143.9731  140.7930  160.7252 C.3     1  UNL1        0.0205
      3 C         143.9068  139.5214  159.9322 C.3     1  UNL1        0.0546
      4 C         143.7017  138.2107  160.6323 C.3     1  UNL1        0.0162
      5 C         143.5630  138.1716  162.1254 C.3     1  UNL1        0.0108
      6 C         143.6293  139.4432  162.9183 C.3     1  UNL1        0.0808
      7 C         141.9036  142.9786  161.6498 C.3     1  UNL1        0.0307
      8 C         142.9353  143.1378  162.7270 C.ar    1  UNL1       -0.0258
      9 C         143.0016  144.4093  163.5199 C.ar    1  UNL1       -0.0046
     10 C         144.0333  144.5685  164.5971 C.ar    1  UNL1       -0.0003
     11 C         144.9986  143.4562  164.8813 C.ar    1  UNL1       -0.0003
     12 C         144.9323  142.1847  164.0884 C.ar    1  UNL1       -0.0046
     13 C         143.9006  142.0255  163.0112 C.ar    1  UNL1       -0.0259
     14 C         143.4905  139.4041  164.4114 C.2     1  UNL1        0.2255
     15 O         144.4358  138.5768  165.2311 O.2     1  UNL1       -0.2749
     16 N         142.4063  140.1924  165.0848 N.am    1  UNL1       -0.2781
     17 C         141.3106  141.1034  164.6168 C.3     1  UNL1        0.1031
     18 C         140.8732  141.3071  166.0371 C.3     1  UNL1        0.0742
     19 C         141.9691  140.3960  166.5051 C.3     1  UNL1        0.1031
     20 C         140.4359  141.5107  167.4573 C.ar    1  UNL1       -0.0158
     21 C         140.7914  142.7778  168.1772 C.ar    1  UNL1       -0.0039
     22 C         140.3541  142.9814  169.5976 C.ar    1  UNL1       -0.0003
     23 C         139.5614  141.9180  170.2980 C.ar    1  UNL1       -0.0000
     24 C         139.2059  140.6510  169.5782 C.ar    1  UNL1       -0.0003
     25 C         139.6432  140.4473  168.1578 C.ar    1  UNL1       -0.0039
     26 C         139.7773  142.2182  165.5690 C.ar    1  UNL1       -0.0158
     27 C         138.5241  141.6425  164.9791 C.ar    1  UNL1       -0.0039
     28 C         137.4283  142.5537  164.5111 C.ar    1  UNL1       -0.0003
     29 C         137.5858  144.0404  164.6329 C.ar    1  UNL1       -0.0000
     30 C         138.8391  144.6160  165.2228 C.ar    1  UNL1       -0.0003
     31 C         139.9349  143.7049  165.6909 C.ar    1  UNL1       -0.0039
     32 N         144.0456  139.5605  158.4392 N.3     1  UNL1       -0.2948
     33 H         144.7388  138.8553  158.1893 H       1  UNL1        0.1235
     34 C         142.8486  139.3189  157.5681 C.3     1  UNL1        0.0956
     35 C         142.7850  138.0947  156.7036 C.ar    1  UNL1       -0.0063
     36 C         142.7943  136.7322  157.3310 C.ar    1  UNL1       -0.0021
     37 C         142.7307  135.5080  156.4665 C.ar    1  UNL1        0.0111
     38 C         142.6578  135.6464  154.9746 C.ar    1  UNL1        0.0577
     39 CL        142.5942  134.4222  154.1101 Cl      1  UNL1       -0.0822
     40 C         142.6485  137.0088  154.3473 C.ar    1  UNL1        0.0111
     41 C         142.7121  138.2330  155.2118 C.ar    1  UNL1       -0.0021
@<TRIPOS>BOND
     1     7     8    1
     2     8     9   ar
     3     9    10   ar
     4    10    11   ar
     5    11    12   ar
     6    12    13   ar
     7     1    13    1
     8     1     2    1
     9     2     3    1
    10     3    32    1
    11    32    34    1
    12    34    35    1
    13    35    36   ar
    14    36    37   ar
    15    37    38   ar
    16    38    39    1
    17    38    40   ar
    18    40    41   ar
    19     3     4    1
    20     4     5    1
    21     5     6    1
    22     6    14    1
    23    14    15    2
    24    14    16   am
    25    16    17    1
    26    17    18    1
    27    18    20    1
    28    20    21   ar
    29    21    22   ar
    30    22    23   ar
    31    23    24   ar
    32    24    25   ar
    33    18    26    1
    34    26    27   ar
    35    27    28   ar
    36    28    29   ar
    37    29    30   ar
    38    30    31   ar
    39    18    19    1
    40    13     8   ar
    41     6     1    1
    42    19    16    1
    43    41    35   ar
    44    25    20   ar
    45    31    26   ar
    46    32    33    1
@<TRIPOS>MOLECULE
*****
 41 46 0 0 0
SMALL
GASTEIGER

@<TRIPOS>ATOM
      1 C         141.0762  139.1975  161.0706 C.3     1  UNL1        0.0319
      2 C         141.4749  139.1016  159.6277 C.3     1  UNL1        0.0205
      3 C         142.5856  138.1813  159.2161 C.3     1  UNL1        0.0546
      4 C         143.2977  137.3570  160.2473 C.3     1  UNL1        0.0162
      5 C         142.8990  137.4529  161.6902 C.3     1  UNL1        0.0108
      6 C         141.7883  138.3732  162.1018 C.3     1  UNL1        0.0808
      7 C         138.3436  138.0937  161.6314 C.3     1  UNL1        0.0307
      8 C         138.5992  139.5659  161.7626 C.ar    1  UNL1       -0.0258
      9 C         137.4886  140.4862  162.1742 C.ar    1  UNL1       -0.0046
     10 C         137.7442  141.9584  162.3054 C.ar    1  UNL1       -0.0003
     11 C         139.1105  142.5104  162.0250 C.ar    1  UNL1       -0.0003
     12 C         140.2211  141.5901  161.6134 C.ar    1  UNL1       -0.0046
     13 C         139.9655  140.1178  161.4822 C.ar    1  UNL1       -0.0259
     14 C         141.3896  138.4692  163.5447 C.2     1  UNL1        0.2255
     15 O         140.7192  137.3076  164.2164 O.2     1  UNL1       -0.2749
     16 N         141.6614  139.7268  164.3159 N.am    1  UNL1       -0.2781
     17 C         142.2900  141.0510  163.9979 C.3     1  UNL1        0.1031
     18 C         142.0458  141.5052  165.4065 C.3     1  UNL1        0.0742
     19 C         141.4172  140.1809  165.7245 C.3     1  UNL1        0.1031
     20 C         141.8015  141.9594  166.8150 C.ar    1  UNL1       -0.0158
     21 C         140.5329  142.6810  167.1610 C.ar    1  UNL1       -0.0039
     22 C         140.2886  143.1352  168.5696 C.ar    1  UNL1       -0.0003
     23 C         141.3130  142.8677  169.6321 C.ar    1  UNL1       -0.0000
     24 C         142.5816  142.1461  169.2862 C.ar    1  UNL1       -0.0003
     25 C         142.8260  141.6919  167.8776 C.ar    1  UNL1       -0.0039
     26 C         142.6744  142.8295  165.0884 C.ar    1  UNL1       -0.0158
     27 C         144.0722  143.1253  165.5453 C.ar    1  UNL1       -0.0039
     28 C         144.7008  144.4496  165.2273 C.ar    1  UNL1       -0.0003
     29 C         143.9315  145.4780  164.4523 C.ar    1  UNL1       -0.0000
     30 C         142.5338  145.1822  163.9954 C.ar    1  UNL1       -0.0003
     31 C         141.9052  143.8579  164.3135 C.ar    1  UNL1       -0.0039
     32 N         142.9842  138.0854  157.7732 N.3     1  UNL1       -0.2948
     33 H         143.8649  137.5717  157.7446 H       1  UNL1        0.1235
     34 C         142.0676  137.4288  156.7839 C.3     1  UNL1        0.0956
     35 C         142.1591  135.9512  156.5426 C.ar    1  UNL1       -0.0063
     36 C         143.1448  135.1248  157.3145 C.ar    1  UNL1       -0.0021
     37 C         143.2363  133.6472  157.0732 C.ar    1  UNL1        0.0111
     38 C         142.3422  132.9959  156.0600 C.ar    1  UNL1        0.0577
     39 CL        142.4337  131.5183  155.8187 Cl      1  UNL1       -0.0822
     40 C         141.3566  133.8223  155.2882 C.ar    1  UNL1        0.0111
     41 C         141.2651  135.2999  155.5295 C.ar    1  UNL1       -0.0021
@<TRIPOS>BOND
     1     7     8    1
     2     8     9   ar
     3     9    10   ar
     4    10    11   ar
     5    11    12   ar
     6    12    13   ar
     7     1    13    1
     8     1     2    1
     9     2     3    1
    10     3    32    1
    11    32    34    1
    12    34    35    1
    13    35    36   ar
    14    36    37   ar
    15    37    38   ar
    16    38    39    1
    17    38    40   ar
    18    40    41   ar
    19     3     4    1
    20     4     5    1
    21     5     6    1
    22     6    14    1
    23    14    15    2
    24    14    16   am
    25    16    17    1
    26    17    18    1
    27    18    20    1
    28    20    21   ar
    29    21    22   ar
    30    22    23   ar
    31    23    24   ar
    32    24    25   ar
    33    18    26    1
    34    26    27   ar
    35    27    28   ar
    36    28    29   ar
    37    29    30   ar
    38    30    31   ar
    39    18    19    1
    40    13     8   ar
    41     6     1    1
    42    19    16    1
    43    41    35   ar
    44    25    20   ar
    45    31    26   ar
    46    32    33    1
@<TRIPOS>MOLECULE
*****
 41 46 0 0 0
SMALL
GASTEIGER

@<TRIPOS>ATOM
      1 C         143.7027  141.8320  160.7253 C.3     1  UNL1        0.0319
      2 C         144.0607  142.7109  159.5637 C.3     1  UNL1        0.0205
      3 C         143.6048  142.3493  158.1812 C.3     1  UNL1        0.0546
      4 C         142.7909  141.1088  157.9603 C.3     1  UNL1        0.0162
      5 C         142.4329  140.2299  159.1219 C.3     1  UNL1        0.0108
      6 C         142.8889  140.5916  160.5045 C.3     1  UNL1        0.0808
      7 C         142.5789  144.2563  162.0893 C.3     1  UNL1        0.0307
      8 C         143.5967  143.4058  162.7898 C.ar    1  UNL1       -0.0258
      9 C         144.0527  143.7674  164.1723 C.ar    1  UNL1       -0.0046
     10 C         145.0705  142.9170  164.8729 C.ar    1  UNL1       -0.0003
     11 C         145.6323  141.7049  164.1910 C.ar    1  UNL1       -0.0003
     12 C         145.1764  141.3432  162.8085 C.ar    1  UNL1       -0.0046
     13 C         144.1586  142.1937  162.1079 C.ar    1  UNL1       -0.0259
     14 C         142.5309  139.7127  161.6662 C.2     1  UNL1        0.2255
     15 O         143.1427  138.3489  161.7913 O.2     1  UNL1       -0.2749
     16 N         141.5611  140.1977  162.7027 N.am    1  UNL1       -0.2781
     17 C         140.7718  141.4561  162.9103 C.3     1  UNL1        0.1031
     18 C         140.1896  140.8835  164.1686 C.3     1  UNL1        0.0742
     19 C         140.9790  139.6250  163.9610 C.3     1  UNL1        0.1031
     20 C         139.6076  140.3109  165.4268 C.ar    1  UNL1       -0.0158
     21 C         138.4595  139.3484  165.3518 C.ar    1  UNL1       -0.0039
     22 C         137.8775  138.7757  166.6101 C.ar    1  UNL1       -0.0003
     23 C         138.4434  139.1655  167.9433 C.ar    1  UNL1       -0.0000
     24 C         139.5914  140.1280  168.0184 C.ar    1  UNL1       -0.0003
     25 C         140.1736  140.7007  166.7601 C.ar    1  UNL1       -0.0039
     26 C         139.4003  142.1421  164.3761 C.ar    1  UNL1       -0.0158
     27 C         137.9923  142.2368  163.8676 C.ar    1  UNL1       -0.0039
     28 C         137.2031  143.4954  164.0752 C.ar    1  UNL1       -0.0003
     29 C         137.8218  144.6591  164.7913 C.ar    1  UNL1       -0.0000
     30 C         139.2298  144.5644  165.2998 C.ar    1  UNL1       -0.0003
     31 C         140.0191  143.3058  165.0922 C.ar    1  UNL1       -0.0039
     32 N         143.9627  143.2282  157.0195 N.3     1  UNL1       -0.2948
     33 H         144.8033  142.8322  156.5987 H       1  UNL1        0.1235
     34 C         142.9791  143.4380  155.9067 C.3     1  UNL1        0.0956
     35 C         141.9610  144.5355  156.0026 C.ar    1  UNL1       -0.0063
     36 C         141.5916  145.3246  154.7816 C.ar    1  UNL1       -0.0021
     37 C         140.5736  146.4220  154.8774 C.ar    1  UNL1        0.0111
     38 C         139.9249  146.7303  156.1944 C.ar    1  UNL1        0.0577
     39 CL        138.9069  147.8278  156.2903 Cl      1  UNL1       -0.0822
     40 C         140.2944  145.9412  157.4154 C.ar    1  UNL1        0.0111
     41 C         141.3124  144.8438  157.3195 C.ar    1  UNL1       -0.0021
@<TRIPOS>BOND
     1     7     8    1
     2     8     9   ar
     3     9    10   ar
     4    10    11   ar
     5    11    12   ar
     6    12    13   ar
     7     1    13    1
     8     1     2    1
     9     2     3    1
    10     3    32    1
    11    32    34    1
    12    34    35    1
    13    35    36   ar
    14    36    37   ar
    15    37    38   ar
    16    38    39    1
    17    38    40   ar
    18    40    41   ar
    19     3     4    1
    20     4     5    1
    21     5     6    1
    22     6    14    1
    23    14    15    2
    24    14    16   am
    25    16    17    1
    26    17    18    1
    27    18    20    1
    28    20    21   ar
    29    21    22   ar
    30    22    23   ar
    31    23    24   ar
    32    24    25   ar
    33    18    26    1
    34    26    27   ar
    35    27    28   ar
    36    28    29   ar
    37    29    30   ar
    38    30    31   ar
    39    18    19    1
    40    13     8   ar
    41     6     1    1
    42    19    16    1
    43    41    35   ar
    44    25    20   ar
    45    31    26   ar
    46    32    33    1
@<TRIPOS>MOLECULE
*****
 41 46 0 0 0
SMALL
GASTEIGER

@<TRIPOS>ATOM
      1 C         142.2133  143.2971  162.0930 C.3     1  UNL1        0.0319
      2 C         142.2093  143.2239  160.5948 C.3     1  UNL1        0.0205
      3 C         143.4798  142.9263  159.8551 C.3     1  UNL1        0.0546
      4 C         144.7543  142.7019  160.6136 C.3     1  UNL1        0.0162
      5 C         144.7583  142.7751  162.1118 C.3     1  UNL1        0.0108
      6 C         143.4877  143.0727  162.8515 C.3     1  UNL1        0.0808
      7 C         139.9052  141.3867  161.9392 C.3     1  UNL1        0.0307
      8 C         139.7887  142.6395  162.7558 C.ar    1  UNL1       -0.0258
      9 C         138.5182  142.9371  163.4955 C.ar    1  UNL1       -0.0046
     10 C         138.4017  144.1899  164.3122 C.ar    1  UNL1       -0.0003
     11 C         139.5556  145.1451  164.3891 C.ar    1  UNL1       -0.0003
     12 C         140.8261  144.8475  163.6494 C.ar    1  UNL1       -0.0046
     13 C         140.9427  143.5947  162.8328 C.ar    1  UNL1       -0.0259
     14 C         143.4917  143.1459  164.3497 C.2     1  UNL1        0.2255
     15 O         144.3167  144.1862  165.0476 O.2     1  UNL1       -0.2749
     16 N         142.6706  142.1786  165.1500 N.am    1  UNL1       -0.2781
     17 C         141.7517  141.0402  164.8194 C.3     1  UNL1        0.1031
     18 C         141.5095  140.8109  166.2819 C.3     1  UNL1        0.0742
     19 C         142.4285  141.9494  166.6125 C.3     1  UNL1        0.1031
     20 C         141.2674  140.5816  167.7443 C.ar    1  UNL1       -0.0158
     21 C         142.0972  139.5820  168.4942 C.ar    1  UNL1       -0.0039
     22 C         141.8550  139.3527  169.9567 C.ar    1  UNL1       -0.0003
     23 C         140.7832  140.1230  170.6692 C.ar    1  UNL1       -0.0000
     24 C         139.9534  141.1226  169.9194 C.ar    1  UNL1       -0.0003
     25 C         140.1955  141.3519  168.4569 C.ar    1  UNL1       -0.0039
     26 C         140.5906  139.6724  165.9512 C.ar    1  UNL1       -0.0158
     27 C         139.1333  139.7604  166.2956 C.ar    1  UNL1       -0.0039
     28 C         138.2144  138.6219  165.9649 C.ar    1  UNL1       -0.0003
     29 C         138.7528  137.3954  165.2897 C.ar    1  UNL1       -0.0000
     30 C         140.2101  137.3074  164.9453 C.ar    1  UNL1       -0.0003
     31 C         141.1290  138.4459  165.2760 C.ar    1  UNL1       -0.0039
     32 N         143.4758  142.8531  158.3569 N.3     1  UNL1       -0.2948
     33 H         144.0361  143.6371  158.0223 H       1  UNL1        0.1235
     34 C         143.9909  141.6262  157.6646 C.3     1  UNL1        0.0956
     35 C         145.2211  141.7078  156.8102 C.ar    1  UNL1       -0.0063
     36 C         145.2679  140.9926  155.4925 C.ar    1  UNL1       -0.0021
     37 C         146.4981  141.0742  154.6381 C.ar    1  UNL1        0.0111
     38 C         147.6815  141.8711  155.1015 C.ar    1  UNL1        0.0577
     39 CL        148.9117  141.9527  154.2471 Cl      1  UNL1       -0.0822
     40 C         147.6347  142.5862  156.4192 C.ar    1  UNL1        0.0111
     41 C         146.4045  142.5046  157.2735 C.ar    1  UNL1       -0.0021
@<TRIPOS>BOND
     1     7     8    1
     2     8     9   ar
     3     9    10   ar
     4    10    11   ar
     5    11    12   ar
     6    12    13   ar
     7     1    13    1
     8     1     2    1
     9     2     3    1
    10     3    32    1
    11    32    34    1
    12    34    35    1
    13    35    36   ar
    14    36    37   ar
    15    37    38   ar
    16    38    39    1
    17    38    40   ar
    18    40    41   ar
    19     3     4    1
    20     4     5    1
    21     5     6    1
    22     6    14    1
    23    14    15    2
    24    14    16   am
    25    16    17    1
    26    17    18    1
    27    18    20    1
    28    20    21   ar
    29    21    22   ar
    30    22    23   ar
    31    23    24   ar
    32    24    25   ar
    33    18    26    1
    34    26    27   ar
    35    27    28   ar
    36    28    29   ar
    37    29    30   ar
    38    30    31   ar
    39    18    19    1
    40    13     8   ar
    41     6     1    1
    42    19    16    1
    43    41    35   ar
    44    25    20   ar
    45    31    26   ar
    46    32    33    1
@<TRIPOS>MOLECULE
*****
 41 46 0 0 0
SMALL
GASTEIGER

@<TRIPOS>ATOM
      1 C         143.0802  140.8813  161.0336 C.3     1  UNL1        0.0319
      2 C         143.1886  141.3576  159.6153 C.3     1  UNL1        0.0205
      3 C         144.2383  142.3609  159.2392 C.3     1  UNL1        0.0546
      4 C         145.1797  142.8879  160.2814 C.3     1  UNL1        0.0162
      5 C         145.0714  142.4116  161.6996 C.3     1  UNL1        0.0108
      6 C         144.0216  141.4083  162.0757 C.3     1  UNL1        0.0808
      7 C         143.8277  138.0019  161.4213 C.3     1  UNL1        0.0307
      8 C         142.4042  138.4383  161.6035 C.ar    1  UNL1       -0.0258
      9 C         141.3545  137.4351  161.9796 C.ar    1  UNL1       -0.0046
     10 C         139.9310  137.8715  162.1617 C.ar    1  UNL1       -0.0003
     11 C         139.5572  139.3112  161.9679 C.ar    1  UNL1       -0.0003
     12 C         140.6070  140.3144  161.5918 C.ar    1  UNL1       -0.0046
     13 C         142.0305  139.8780  161.4096 C.ar    1  UNL1       -0.0259
     14 C         143.9132  140.9320  163.4939 C.2     1  UNL1        0.2255
     15 O         144.9921  140.0704  164.0802 O.2     1  UNL1       -0.2749
     16 N         142.7260  141.3173  164.3259 N.am    1  UNL1       -0.2781
     17 C         141.4904  142.1359  164.0958 C.3     1  UNL1        0.1031
     18 C         141.0471  141.8622  165.5025 C.3     1  UNL1        0.0742
     19 C         142.2828  141.0436  165.7325 C.3     1  UNL1        0.1031
     20 C         140.6038  141.5885  166.9090 C.ar    1  UNL1       -0.0158
     21 C         139.7888  140.3668  167.2142 C.ar    1  UNL1       -0.0039
     22 C         139.3455  140.0931  168.6209 C.ar    1  UNL1       -0.0003
     23 C         139.7173  141.0410  169.7222 C.ar    1  UNL1       -0.0000
     24 C         140.5323  142.2627  169.4171 C.ar    1  UNL1       -0.0003
     25 C         140.9756  142.5365  168.0105 C.ar    1  UNL1       -0.0039
     26 C         139.8114  142.6809  165.2723 C.ar    1  UNL1       -0.0158
     27 C         138.6233  142.0701  164.5901 C.ar    1  UNL1       -0.0039
     28 C         137.3877  142.8889  164.3600 C.ar    1  UNL1       -0.0003
     29 C         137.3403  144.3183  164.8121 C.ar    1  UNL1       -0.0000
     30 C         138.5284  144.9291  165.4943 C.ar    1  UNL1       -0.0003
     31 C         139.7640  144.1104  165.7244 C.ar    1  UNL1       -0.0039
     32 N         144.3467  142.8372  157.8210 N.3     1  UNL1       -0.2948
     33 H         145.1541  143.4591  157.7801 H       1  UNL1        0.1235
     34 C         144.5069  141.8456  156.7070 C.3     1  UNL1        0.0956
     35 C         145.7628  141.8355  155.8868 C.ar    1  UNL1       -0.0063
     36 C         145.7066  141.4679  154.4336 C.ar    1  UNL1       -0.0021
     37 C         146.9625  141.4578  153.6135 C.ar    1  UNL1        0.0111
     38 C         148.2746  141.8152  154.2465 C.ar    1  UNL1        0.0577
     39 CL        149.5305  141.8051  153.4264 Cl      1  UNL1       -0.0822
     40 C         148.3308  142.1828  155.6997 C.ar    1  UNL1        0.0111
     41 C         147.0749  142.1929  156.5198 C.ar    1  UNL1       -0.0021
@<TRIPOS>BOND
     1     7     8    1
     2     8     9   ar
     3     9    10   ar
     4    10    11   ar
     5    11    12   ar
     6    12    13   ar
     7     1    13    1
     8     1     2    1
     9     2     3    1
    10     3    32    1
    11    32    34    1
    12    34    35    1
    13    35    36   ar
    14    36    37   ar
    15    37    38   ar
    16    38    39    1
    17    38    40   ar
    18    40    41   ar
    19     3     4    1
    20     4     5    1
    21     5     6    1
    22     6    14    1
    23    14    15    2
    24    14    16   am
    25    16    17    1
    26    17    18    1
    27    18    20    1
    28    20    21   ar
    29    21    22   ar
    30    22    23   ar
    31    23    24   ar
    32    24    25   ar
    33    18    26    1
    34    26    27   ar
    35    27    28   ar
    36    28    29   ar
    37    29    30   ar
    38    30    31   ar
    39    18    19    1
    40    13     8   ar
    41     6     1    1
    42    19    16    1
    43    41    35   ar
    44    25    20   ar
    45    31    26   ar
    46    32    33    1
