@<TRIPOS>MOLECULE
*****
 32 35 0 0 0
SMALL
GASTEIGER

@<TRIPOS>ATOM
      1 C         138.2188  139.5954  162.1543 C.3     1  UNL1        0.0732
      2 C         138.3373  138.1096  162.3225 C.3     1  UNL1        0.0197
      3 C         138.8976  137.5408  163.5923 C.3     1  UNL1        0.0031
      4 C         139.3393  138.4579  164.6941 C.3     1  UNL1        0.0161
      5 C         139.2208  139.9437  164.5260 C.3     1  UNL1        0.0592
      6 C         138.6605  140.5124  163.2561 C.3     1  UNL1        0.0355
      7 N         139.6625  140.8608  165.6276 N.3     1  UNL1       -0.2727
      8 C         140.0266  142.3081  165.4773 C.3     1  UNL1        0.0736
      9 C         140.4067  142.8334  166.8299 C.3     1  UNL1        0.0364
     10 C         140.2776  141.7107  167.8163 C.3     1  UNL1        0.0966
     11 C         139.8176  140.4915  167.0732 C.3     1  UNL1        0.0900
     12 N         140.5590  141.7927  169.2874 N.3     1  UNL1       -0.1579
     13 C         139.5449  141.2944  170.2739 C.3     1  UNL1        0.1145
     14 S         141.8546  142.3730  169.7719 S.O2    1  UNL1        0.0457
     15 C         143.1501  142.9533  170.2564 C.3     1  UNL1        0.1960
     16 O         142.5906  141.1853  169.2265 O.2     1  UNL1       -0.1572
     17 O         141.1186  143.5608  170.3173 O.2     1  UNL1       -0.1572
     18 C         138.5699  140.4676  159.7324 C.2     1  UNL1        0.2631
     19 O         140.0416  140.2024  159.8503 O.2     1  UNL1       -0.2685
     20 N         137.6585  140.1641  160.8844 N.am    1  UNL1       -0.3012
     21 H         136.6926  140.3381  160.8070 H       1  UNL1        0.1497
     22 C         135.0560  139.9037  154.9975 C.3     1  UNL1        0.0286
     23 C         135.8592  141.1537  155.2029 C.2     1  UNL1       -0.0178
     24 C         135.7757  142.2712  154.2058 C.2     1  UNL1       -0.0040
     25 C         136.5789  143.5212  154.4112 C.2     1  UNL1        0.0288
     26 C         137.4658  143.6538  155.6138 C.2     1  UNL1        0.1383
     27 F         138.2690  144.9039  155.8191 F       1  UNL1       -0.2044
     28 C         137.5493  142.5363  156.6109 C.2     1  UNL1        0.0327
     29 C         138.3303  142.3818  157.8821 C.2     1  UNL1        0.0235
     30 C         138.0097  141.0363  158.4624 C.2     1  UNL1        0.1296
     31 N         137.0306  140.3592  157.5498 N.2     1  UNL1       -0.2591
     32 C         136.7460  141.2863  156.4055 C.3     1  UNL1        0.1461
@<TRIPOS>BOND
     1    22    23    1
     2    23    24    2
     3    24    25    1
     4    25    26    2
     5    26    27    1
     6    26    28    1
     7    28    29    2
     8    29    30    1
     9    30    18    1
    10    18    19    2
    11    18    20   am
    12     1    20    1
    13     1     2    1
    14     2     3    1
    15     3     4    1
    16     4     5    1
    17     5     7    1
    18     7     8    1
    19     8     9    1
    20     9    10    1
    21    10    12    1
    22    12    13    1
    23    12    14    1
    24    14    15    1
    25    14    16    2
    26    14    17    2
    27    10    11    1
    28     5     6    1
    29    30    31    2
    30    31    32    1
    31    32    23    1
    32    32    28    1
    33     6     1    1
    34    11     7    1
    35    20    21    1
@<TRIPOS>MOLECULE
*****
 32 35 0 0 0
SMALL
GASTEIGER

@<TRIPOS>ATOM
      1 C         139.7842  138.1369  156.9857 C.3     1  UNL1        0.0732
      2 C         139.2652  139.0318  155.8996 C.3     1  UNL1        0.0197
      3 C         138.6691  140.3639  156.2462 C.3     1  UNL1        0.0031
      4 C         138.5920  140.8011  157.6790 C.3     1  UNL1        0.0161
      5 C         139.1110  139.9062  158.7652 C.3     1  UNL1        0.0592
      6 C         139.7071  138.5740  158.4185 C.3     1  UNL1        0.0355
      7 N         139.0340  140.3432  160.1980 N.3     1  UNL1       -0.2727
      8 C         139.1802  139.4569  161.3992 C.3     1  UNL1        0.0736
      9 C         139.0338  140.3094  162.6248 C.3     1  UNL1        0.0364
     10 C         138.7971  141.7226  162.1809 C.3     1  UNL1        0.0966
     11 C         138.7972  141.7435  160.6810 C.3     1  UNL1        0.0900
     12 N         138.5956  142.9069  163.0792 N.3     1  UNL1       -0.1579
     13 C         137.8697  142.7453  164.3818 C.3     1  UNL1        0.1145
     14 S         139.1201  144.2527  162.6748 S.O2    1  UNL1        0.0457
     15 C         139.6446  145.5986  162.2704 C.3     1  UNL1        0.1960
     16 O         137.7167  144.7325  162.4510 O.2     1  UNL1       -0.1572
     17 O         140.5236  143.7730  162.8986 O.2     1  UNL1       -0.1572
     18 C         141.8699  136.6286  156.6324 C.2     1  UNL1        0.2631
     19 O         142.7633  137.7844  156.9726 O.2     1  UNL1       -0.2685
     20 N         140.3803  136.8048  156.6389 N.am    1  UNL1       -0.3012
     21 H         139.7939  136.0461  156.4157 H       1  UNL1        0.1497
     22 C         145.4965  132.1468  157.9911 C.3     1  UNL1        0.0286
     23 C         144.6981  132.1200  156.7215 C.2     1  UNL1       -0.0178
     24 C         144.8153  130.9530  155.7864 C.2     1  UNL1       -0.0040
     25 C         144.0170  130.9262  154.5168 C.2     1  UNL1        0.0288
     26 C         143.1015  132.0664  154.1822 C.2     1  UNL1        0.1383
     27 F         142.3031  132.0395  152.9125 F       1  UNL1       -0.2044
     28 C         142.9843  133.2333  155.1173 C.2     1  UNL1        0.0327
     29 C         142.1706  134.4919  155.0547 C.2     1  UNL1        0.0235
     30 C         142.4661  135.2965  156.2856 C.2     1  UNL1        0.1296
     31 N         143.4624  134.5353  157.1090 N.2     1  UNL1       -0.2591
     32 C         143.7827  133.2601  156.3869 C.3     1  UNL1        0.1461
@<TRIPOS>BOND
     1    22    23    1
     2    23    24    2
     3    24    25    1
     4    25    26    2
     5    26    27    1
     6    26    28    1
     7    28    29    2
     8    29    30    1
     9    30    18    1
    10    18    19    2
    11    18    20   am
    12     1    20    1
    13     1     2    1
    14     2     3    1
    15     3     4    1
    16     4     5    1
    17     5     7    1
    18     7     8    1
    19     8     9    1
    20     9    10    1
    21    10    12    1
    22    12    13    1
    23    12    14    1
    24    14    15    1
    25    14    16    2
    26    14    17    2
    27    10    11    1
    28     5     6    1
    29    30    31    2
    30    31    32    1
    31    32    23    1
    32    32    28    1
    33     6     1    1
    34    11     7    1
    35    20    21    1
@<TRIPOS>MOLECULE
*****
 32 35 0 0 0
SMALL
GASTEIGER

@<TRIPOS>ATOM
      1 C         139.9261  138.2809  156.9357 C.3     1  UNL1        0.0732
      2 C         139.6863  139.2530  155.8188 C.3     1  UNL1        0.0197
      3 C         139.0999  140.6022  156.1118 C.3     1  UNL1        0.0031
      4 C         138.7533  140.9793  157.5216 C.3     1  UNL1        0.0161
      5 C         138.9931  140.0072  158.6385 C.3     1  UNL1        0.0592
      6 C         139.5795  138.6580  158.3455 C.3     1  UNL1        0.0355
      7 N         138.6465  140.3841  160.0483 N.3     1  UNL1       -0.2727
      8 C         137.8249  139.5689  161.0024 C.3     1  UNL1        0.0736
      9 C         137.7313  140.3236  162.2954 C.3     1  UNL1        0.0364
     10 C         138.4952  141.6052  162.1404 C.3     1  UNL1        0.0966
     11 C         139.0609  141.6427  160.7517 C.3     1  UNL1        0.0900
     12 N         138.6639  142.6635  163.1900 N.3     1  UNL1       -0.1579
     13 C         138.3751  142.3470  164.6275 C.3     1  UNL1        0.1145
     14 S         139.1212  144.0384  162.8020 S.O2    1  UNL1        0.0457
     15 C         139.5786  145.4133  162.4140 C.3     1  UNL1        0.1960
     16 O         140.5399  143.6493  163.0949 O.2     1  UNL1       -0.1572
     17 O         137.7025  144.4276  162.5090 O.2     1  UNL1       -0.1572
     18 C         141.9961  136.7254  156.7224 C.2     1  UNL1        0.2631
     19 O         142.8932  137.8683  157.0952 O.2     1  UNL1       -0.2685
     20 N         140.5125  136.9317  156.6426 N.am    1  UNL1       -0.3012
     21 H         139.9237  136.1816  156.3980 H       1  UNL1        0.1497
     22 C         142.3942  131.9873  153.1903 C.3     1  UNL1        0.0286
     23 C         143.1936  132.0596  154.4574 C.2     1  UNL1       -0.0178
     24 C         144.1012  130.9274  154.8373 C.2     1  UNL1       -0.0040
     25 C         144.9006  130.9996  156.1044 C.2     1  UNL1        0.0288
     26 C         144.7924  132.2042  156.9918 C.2     1  UNL1        0.1383
     27 F         145.5919  132.2764  158.2590 F       1  UNL1       -0.2044
     28 C         143.8848  133.3364  156.6120 C.2     1  UNL1        0.0327
     29 C         143.5741  134.6418  157.2823 C.2     1  UNL1        0.0235
     30 C         142.5826  135.3763  156.4294 C.2     1  UNL1        0.1296
     31 N         142.2806  134.5249  155.2319 N.2     1  UNL1       -0.2591
     32 C         143.0854  133.2641  155.3448 C.3     1  UNL1        0.1461
@<TRIPOS>BOND
     1    22    23    1
     2    23    24    2
     3    24    25    1
     4    25    26    2
     5    26    27    1
     6    26    28    1
     7    28    29    2
     8    29    30    1
     9    30    18    1
    10    18    19    2
    11    18    20   am
    12     1    20    1
    13     1     2    1
    14     2     3    1
    15     3     4    1
    16     4     5    1
    17     5     7    1
    18     7     8    1
    19     8     9    1
    20     9    10    1
    21    10    12    1
    22    12    13    1
    23    12    14    1
    24    14    15    1
    25    14    16    2
    26    14    17    2
    27    10    11    1
    28     5     6    1
    29    30    31    2
    30    31    32    1
    31    32    23    1
    32    32    28    1
    33     6     1    1
    34    11     7    1
    35    20    21    1
@<TRIPOS>MOLECULE
*****
 32 35 0 0 0
SMALL
GASTEIGER

@<TRIPOS>ATOM
      1 C         142.6915  138.9249  159.1010 C.3     1  UNL1        0.0732
      2 C         143.2942  140.0430  158.3032 C.3     1  UNL1        0.0197
      3 C         143.6665  139.8235  156.8668 C.3     1  UNL1        0.0031
      4 C         143.4362  138.4859  156.2283 C.3     1  UNL1        0.0161
      5 C         142.8335  137.3678  157.0261 C.3     1  UNL1        0.0592
      6 C         142.4612  137.5873  158.4625 C.3     1  UNL1        0.0355
      7 N         142.6032  136.0302  156.3877 N.3     1  UNL1       -0.2727
      8 C         141.4356  135.6547  155.5242 C.3     1  UNL1        0.0736
      9 C         141.6108  134.2255  155.1035 C.3     1  UNL1        0.0364
     10 C         142.8868  133.7178  155.7071 C.3     1  UNL1        0.0966
     11 C         143.5001  134.8331  156.5008 C.3     1  UNL1        0.0900
     12 N         143.4505  132.3372  155.5454 N.3     1  UNL1       -0.1579
     13 C         143.3874  131.6528  154.2121 C.3     1  UNL1        0.1145
     14 S         144.0772  131.6410  156.7169 S.O2    1  UNL1        0.0457
     15 C         144.7039  130.9448  157.8884 C.3     1  UNL1        0.1960
     16 O         145.4330  131.8294  156.1037 O.2     1  UNL1       -0.1572
     17 O         142.7213  131.4525  157.3302 O.2     1  UNL1       -0.1572
     18 C         140.8786  139.1033  160.9535 C.2     1  UNL1        0.2631
     19 O         139.8105  138.8425  159.9331 O.2     1  UNL1       -0.2685
     20 N         142.3191  139.1446  160.5374 N.am    1  UNL1       -0.3012
     21 H         143.0202  139.3158  161.2071 H       1  UNL1        0.1497
     22 C         141.0335  142.4919  165.8092 C.3     1  UNL1        0.0286
     23 C         140.3220  141.1715  165.8266 C.2     1  UNL1       -0.0178
     24 C         139.6438  140.7014  167.0792 C.2     1  UNL1       -0.0040
     25 C         138.9323  139.3811  167.0966 C.2     1  UNL1        0.0288
     26 C         138.8991  138.5306  165.8614 C.2     1  UNL1        0.1383
     27 F         138.1875  137.2102  165.8788 F       1  UNL1       -0.2044
     28 C         139.5773  139.0007  164.6088 C.2     1  UNL1        0.0327
     29 C         139.7116  138.3837  163.2481 C.2     1  UNL1        0.0235
     30 C         140.5062  139.3229  162.3898 C.2     1  UNL1        0.1296
     31 N         140.8629  140.5202  163.2200 N.2     1  UNL1       -0.2591
     32 C         140.2888  140.3211  164.5914 C.3     1  UNL1        0.1461
@<TRIPOS>BOND
     1    22    23    1
     2    23    24    2
     3    24    25    1
     4    25    26    2
     5    26    27    1
     6    26    28    1
     7    28    29    2
     8    29    30    1
     9    30    18    1
    10    18    19    2
    11    18    20   am
    12     1    20    1
    13     1     2    1
    14     2     3    1
    15     3     4    1
    16     4     5    1
    17     5     7    1
    18     7     8    1
    19     8     9    1
    20     9    10    1
    21    10    12    1
    22    12    13    1
    23    12    14    1
    24    14    15    1
    25    14    16    2
    26    14    17    2
    27    10    11    1
    28     5     6    1
    29    30    31    2
    30    31    32    1
    31    32    23    1
    32    32    28    1
    33     6     1    1
    34    11     7    1
    35    20    21    1
@<TRIPOS>MOLECULE
*****
 32 35 0 0 0
SMALL
GASTEIGER

@<TRIPOS>ATOM
      1 C         144.4234  142.9983  162.3685 C.3     1  UNL1        0.0732
      2 C         144.1856  144.4304  162.7462 C.3     1  UNL1        0.0197
      3 C         143.6288  144.7671  164.0976 C.3     1  UNL1        0.0031
      4 C         143.3096  143.6718  165.0715 C.3     1  UNL1        0.0161
      5 C         143.5473  142.2397  164.6938 C.3     1  UNL1        0.0592
      6 C         144.1042  141.9030  163.3424 C.3     1  UNL1        0.0355
      7 N         143.2282  141.1444  165.6676 N.3     1  UNL1       -0.2727
      8 C         143.4393  139.6763  165.4436 C.3     1  UNL1        0.0736
      9 C         142.9834  138.9494  166.6740 C.3     1  UNL1        0.0364
     10 C         142.4906  139.9683  167.6585 C.3     1  UNL1        0.0966
     11 C         142.6418  141.3248  167.0365 C.3     1  UNL1        0.0900
     12 N         141.9427  139.6809  169.0249 N.3     1  UNL1       -0.1579
     13 C         142.6393  138.7005  169.9214 C.3     1  UNL1        0.1145
     14 S         140.6982  140.3740  169.4949 S.O2    1  UNL1        0.0457
     15 C         139.4538  141.0671  169.9650 C.3     1  UNL1        0.1960
     16 O         139.8913  139.6069  168.4898 O.2     1  UNL1       -0.1572
     17 O         141.5051  141.1411  170.5001 O.2     1  UNL1       -0.1572
     18 C         144.1249  142.8140  159.7943 C.2     1  UNL1        0.2631
     19 O         142.7127  143.3030  159.9230 O.2     1  UNL1       -0.2685
     20 N         144.9802  142.6616  161.0170 N.am    1  UNL1       -0.3012
     21 H         145.9071  142.3407  160.9325 H       1  UNL1        0.1497
     22 C         143.2537  141.0633  154.2031 C.3     1  UNL1        0.0286
     23 C         144.6372  141.3655  154.6978 C.2     1  UNL1       -0.0178
     24 C         145.8111  141.2251  153.7747 C.2     1  UNL1       -0.0040
     25 C         147.1945  141.5273  154.2693 C.2     1  UNL1        0.0288
     26 C         147.4041  141.9700  155.6872 C.2     1  UNL1        0.1383
     27 F         148.7876  142.2721  156.1818 F       1  UNL1       -0.2044
     28 C         146.2302  142.1104  156.6103 C.2     1  UNL1        0.0327
     29 C         146.1282  142.5240  158.0485 C.2     1  UNL1        0.0235
     30 C         144.6817  142.4773  158.4427 C.2     1  UNL1        0.1296
     31 N         143.8897  142.0350  157.2481 N.2     1  UNL1       -0.2591
     32 C         144.8467  141.8082  156.1156 C.3     1  UNL1        0.1461
@<TRIPOS>BOND
     1    22    23    1
     2    23    24    2
     3    24    25    1
     4    25    26    2
     5    26    27    1
     6    26    28    1
     7    28    29    2
     8    29    30    1
     9    30    18    1
    10    18    19    2
    11    18    20   am
    12     1    20    1
    13     1     2    1
    14     2     3    1
    15     3     4    1
    16     4     5    1
    17     5     7    1
    18     7     8    1
    19     8     9    1
    20     9    10    1
    21    10    12    1
    22    12    13    1
    23    12    14    1
    24    14    15    1
    25    14    16    2
    26    14    17    2
    27    10    11    1
    28     5     6    1
    29    30    31    2
    30    31    32    1
    31    32    23    1
    32    32    28    1
    33     6     1    1
    34    11     7    1
    35    20    21    1
@<TRIPOS>MOLECULE
*****
 32 35 0 0 0
SMALL
GASTEIGER

@<TRIPOS>ATOM
      1 C         139.6324  143.9514  162.3691 C.3     1  UNL1        0.0732
      2 C         138.2523  144.4035  162.7446 C.3     1  UNL1        0.0197
      3 C         137.8075  144.3453  164.1759 C.3     1  UNL1        0.0031
      4 C         138.7428  143.8349  165.2318 C.3     1  UNL1        0.0161
      5 C         140.1228  143.3828  164.8563 C.3     1  UNL1        0.0592
      6 C         140.5676  143.4411  163.4249 C.3     1  UNL1        0.0355
      7 N         141.0581  142.8724  165.9120 N.3     1  UNL1       -0.2727
      8 C         142.5293  142.6323  165.7453 C.3     1  UNL1        0.0736
      9 C         143.0669  142.1241  167.0502 C.3     1  UNL1        0.0364
     10 C         141.9278  142.0500  168.0235 C.3     1  UNL1        0.0966
     11 C         140.6863  142.5126  167.3200 C.3     1  UNL1        0.0900
     12 N         142.0149  141.5936  169.4497 N.3     1  UNL1       -0.1579
     13 C         141.8266  142.5786  170.5652 C.3     1  UNL1        0.1145
     14 S         142.2904  140.1523  169.7604 S.O2    1  UNL1        0.0457
     15 C         142.5659  138.7109  170.0710 C.3     1  UNL1        0.1960
     16 O         143.6723  140.5147  170.2173 O.2     1  UNL1       -0.1572
     17 O         140.9085  139.7897  169.3035 O.2     1  UNL1       -0.1572
     18 C         140.0770  145.3186  160.2050 C.2     1  UNL1        0.2631
     19 O         139.6320  146.5691  160.9037 O.2     1  UNL1       -0.2685
     20 N         140.0772  144.0097  160.9377 N.am    1  UNL1       -0.3012
     21 H         140.3692  143.1889  160.4791 H       1  UNL1        0.1497
     22 C         139.5101  147.6041  154.7700 C.3     1  UNL1        0.0286
     23 C         140.5506  146.5608  155.0507 C.2     1  UNL1       -0.0178
     24 C         141.4560  146.0896  153.9515 C.2     1  UNL1       -0.0040
     25 C         142.4965  145.0464  154.2322 C.2     1  UNL1        0.0288
     26 C         142.6316  144.4741  155.6122 C.2     1  UNL1        0.1383
     27 F         143.6722  143.4307  155.8928 F       1  UNL1       -0.2044
     28 C         141.7262  144.9452  156.7114 C.2     1  UNL1        0.0327
     29 C         141.6249  144.5672  158.1594 C.2     1  UNL1        0.0235
     30 C         140.5217  145.3770  158.7736 C.2     1  UNL1        0.1296
     31 N         139.9413  146.2554  157.7052 N.2     1  UNL1       -0.2591
     32 C         140.6857  145.9885  156.4307 C.3     1  UNL1        0.1461
@<TRIPOS>BOND
     1    22    23    1
     2    23    24    2
     3    24    25    1
     4    25    26    2
     5    26    27    1
     6    26    28    1
     7    28    29    2
     8    29    30    1
     9    30    18    1
    10    18    19    2
    11    18    20   am
    12     1    20    1
    13     1     2    1
    14     2     3    1
    15     3     4    1
    16     4     5    1
    17     5     7    1
    18     7     8    1
    19     8     9    1
    20     9    10    1
    21    10    12    1
    22    12    13    1
    23    12    14    1
    24    14    15    1
    25    14    16    2
    26    14    17    2
    27    10    11    1
    28     5     6    1
    29    30    31    2
    30    31    32    1
    31    32    23    1
    32    32    28    1
    33     6     1    1
    34    11     7    1
    35    20    21    1
@<TRIPOS>MOLECULE
*****
 32 35 0 0 0
SMALL
GASTEIGER

@<TRIPOS>ATOM
      1 C         140.2023  138.1635  157.1939 C.3     1  UNL1        0.0732
      2 C         140.0433  139.3118  156.2421 C.3     1  UNL1        0.0197
      3 C         139.5506  140.6375  156.7419 C.3     1  UNL1        0.0031
      4 C         139.2169  140.8148  158.1935 C.3     1  UNL1        0.0161
      5 C         139.3759  139.6665  159.1453 C.3     1  UNL1        0.0592
      6 C         139.8687  138.3408  158.6455 C.3     1  UNL1        0.0355
      7 N         139.0423  139.8437  160.5969 N.3     1  UNL1       -0.2727
      8 C         137.7569  140.3880  161.1461 C.3     1  UNL1        0.0736
      9 C         137.8557  140.3885  162.6429 C.3     1  UNL1        0.0364
     10 C         139.2022  139.8445  163.0187 C.3     1  UNL1        0.0966
     11 C         139.9356  139.5078  161.7543 C.3     1  UNL1        0.0900
     12 N         139.7237  139.6682  164.4141 N.3     1  UNL1       -0.1579
     13 C         141.1497  140.0096  164.7305 C.3     1  UNL1        0.1145
     14 S         138.8193  139.1504  165.4929 S.O2    1  UNL1        0.0457
     15 C         137.9149  138.6326  166.5717 C.3     1  UNL1        0.1960
     16 O         138.7332  137.8297  164.7870 O.2     1  UNL1       -0.1572
     17 O         138.9054  140.4710  166.1989 O.2     1  UNL1       -0.1572
     18 C         142.1460  136.4799  156.8230 C.2     1  UNL1        0.2631
     19 O         143.1042  137.4477  157.4517 O.2     1  UNL1       -0.2685
     20 N         140.6951  136.8378  156.6940 N.am    1  UNL1       -0.3012
     21 H         140.0662  136.2026  156.2814 H       1  UNL1        0.1497
     22 C         141.9552  132.1538  152.7816 C.3     1  UNL1        0.0286
     23 C         142.8896  132.0601  153.9513 C.2     1  UNL1       -0.0178
     24 C         143.7835  130.8652  154.1033 C.2     1  UNL1       -0.0040
     25 C         144.7178  130.7715  155.2729 C.2     1  UNL1        0.0288
     26 C         144.7583  131.8727  156.2907 C.2     1  UNL1        0.1383
     27 F         145.6927  131.7789  157.4604 F       1  UNL1       -0.2044
     28 C         143.8643  133.0675  156.1387 C.2     1  UNL1        0.0327
     29 C         143.6844  134.2993  156.9756 C.2     1  UNL1        0.0235
     30 C         142.6388  135.1543  156.3231 C.2     1  UNL1        0.1296
     31 N         142.1726  134.4509  155.0830 N.2     1  UNL1       -0.2591
     32 C         142.9300  133.1612  154.9690 C.3     1  UNL1        0.1461
@<TRIPOS>BOND
     1    22    23    1
     2    23    24    2
     3    24    25    1
     4    25    26    2
     5    26    27    1
     6    26    28    1
     7    28    29    2
     8    29    30    1
     9    30    18    1
    10    18    19    2
    11    18    20   am
    12     1    20    1
    13     1     2    1
    14     2     3    1
    15     3     4    1
    16     4     5    1
    17     5     7    1
    18     7     8    1
    19     8     9    1
    20     9    10    1
    21    10    12    1
    22    12    13    1
    23    12    14    1
    24    14    15    1
    25    14    16    2
    26    14    17    2
    27    10    11    1
    28     5     6    1
    29    30    31    2
    30    31    32    1
    31    32    23    1
    32    32    28    1
    33     6     1    1
    34    11     7    1
    35    20    21    1
@<TRIPOS>MOLECULE
*****
 32 35 0 0 0
SMALL
GASTEIGER

@<TRIPOS>ATOM
      1 C         139.5703  143.6924  162.1289 C.3     1  UNL1        0.0732
      2 C         138.1497  143.9383  162.5432 C.3     1  UNL1        0.0197
      3 C         137.7572  143.8158  163.9858 C.3     1  UNL1        0.0031
      4 C         138.7853  143.4472  165.0140 C.3     1  UNL1        0.0161
      5 C         140.2058  143.2013  164.5998 C.3     1  UNL1        0.0592
      6 C         140.5983  143.3239  163.1572 C.3     1  UNL1        0.0355
      7 N         141.2338  142.8328  165.6279 N.3     1  UNL1       -0.2727
      8 C         142.7145  142.7476  165.4032 C.3     1  UNL1        0.0736
      9 C         143.3575  142.3469  166.6979 C.3     1  UNL1        0.0364
     10 C         142.2742  142.1845  167.7227 C.3     1  UNL1        0.0966
     11 C         140.9617  142.4848  167.0615 C.3     1  UNL1        0.0900
     12 N         142.4692  141.7909  169.1570 N.3     1  UNL1       -0.1579
     13 C         143.6499  142.3095  169.9232 C.3     1  UNL1        0.1145
     14 S         141.4835  140.8787  169.8250 S.O2    1  UNL1        0.0457
     15 C         140.4979  139.9665  170.4931 C.3     1  UNL1        0.1960
     16 O         141.9834  139.7322  168.9971 O.2     1  UNL1       -0.1572
     17 O         140.9837  142.0253  170.6530 O.2     1  UNL1       -0.1572
     18 C         140.0381  145.1674  160.0420 C.2     1  UNL1        0.2631
     19 O         139.7212  146.3972  160.8403 O.2     1  UNL1       -0.2685
     20 N         139.9627  143.8150  160.6863 N.am    1  UNL1       -0.3012
     21 H         140.1707  143.0078  160.1625 H       1  UNL1        0.1497
     22 C         143.2997  143.3084  155.4605 C.3     1  UNL1        0.0286
     23 C         142.3370  144.4467  155.2954 C.2     1  UNL1       -0.0178
     24 C         142.1954  145.1222  153.9636 C.2     1  UNL1       -0.0040
     25 C         141.2327  146.2605  153.7985 C.2     1  UNL1        0.0288
     26 C         140.4115  146.7235  154.9653 C.2     1  UNL1        0.1383
     27 F         139.4487  147.8619  154.8001 F       1  UNL1       -0.2044
     28 C         140.5530  146.0481  156.2971 C.2     1  UNL1        0.0327
     29 C         139.8823  146.2832  157.6180 C.2     1  UNL1        0.0235
     30 C         140.4305  145.2901  158.5995 C.2     1  UNL1        0.1296
     31 N         141.4401  144.4412  157.8851 N.2     1  UNL1       -0.2591
     32 C         141.5158  144.9097  156.4622 C.3     1  UNL1        0.1461
@<TRIPOS>BOND
     1    22    23    1
     2    23    24    2
     3    24    25    1
     4    25    26    2
     5    26    27    1
     6    26    28    1
     7    28    29    2
     8    29    30    1
     9    30    18    1
    10    18    19    2
    11    18    20   am
    12     1    20    1
    13     1     2    1
    14     2     3    1
    15     3     4    1
    16     4     5    1
    17     5     7    1
    18     7     8    1
    19     8     9    1
    20     9    10    1
    21    10    12    1
    22    12    13    1
    23    12    14    1
    24    14    15    1
    25    14    16    2
    26    14    17    2
    27    10    11    1
    28     5     6    1
    29    30    31    2
    30    31    32    1
    31    32    23    1
    32    32    28    1
    33     6     1    1
    34    11     7    1
    35    20    21    1
@<TRIPOS>MOLECULE
*****
 32 35 0 0 0
SMALL
GASTEIGER

@<TRIPOS>ATOM
      1 C         142.4548  138.5817  158.2777 C.3     1  UNL1        0.0732
      2 C         142.9372  139.8300  157.6001 C.3     1  UNL1        0.0197
      3 C         142.4179  141.1682  158.0353 C.3     1  UNL1        0.0031
      4 C         141.4163  141.2583  159.1482 C.3     1  UNL1        0.0161
      5 C         140.9339  140.0101  159.8259 C.3     1  UNL1        0.0592
      6 C         141.4532  138.6718  159.3907 C.3     1  UNL1        0.0355
      7 N         139.9323  140.1000  160.9388 N.3     1  UNL1       -0.2727
      8 C         138.6008  139.4108  160.9845 C.3     1  UNL1        0.0736
      9 C         137.9319  139.7798  162.2755 C.3     1  UNL1        0.0364
     10 C         138.8501  140.6972  163.0276 C.3     1  UNL1        0.0966
     11 C         140.0864  140.8951  162.2015 C.3     1  UNL1        0.0900
     12 N         138.5794  141.3092  164.3700 N.3     1  UNL1       -0.1579
     13 C         137.7808  142.5750  164.4700 C.3     1  UNL1        0.1145
     14 S         139.1073  140.6553  165.6125 S.O2    1  UNL1        0.0457
     15 C         139.6352  140.0015  166.8550 C.3     1  UNL1        0.1960
     16 O         140.2717  141.6009  165.6155 O.2     1  UNL1       -0.1572
     17 O         137.9429  139.7097  165.6096 O.2     1  UNL1       -0.1572
     18 C         142.1856  136.4116  156.8750 C.2     1  UNL1        0.2631
     19 O         140.8777  136.9179  156.3428 O.2     1  UNL1       -0.2685
     20 N         142.9742  137.2435  157.8424 N.am    1  UNL1       -0.3012
     21 H         143.8326  136.9112  158.1917 H       1  UNL1        0.1497
     22 C         145.4505  131.5945  157.9794 C.3     1  UNL1        0.0286
     23 C         144.7020  131.7248  156.6861 C.2     1  UNL1       -0.0178
     24 C         144.7775  130.6310  155.6624 C.2     1  UNL1       -0.0040
     25 C         144.0290  130.7613  154.3691 C.2     1  UNL1        0.0288
     26 C         143.2051  131.9855  154.0993 C.2     1  UNL1        0.1383
     27 F         142.4566  132.1157  152.8059 F       1  UNL1       -0.2044
     28 C         143.1296  133.0792  155.1230 C.2     1  UNL1        0.0327
     29 C         142.4045  134.3922  155.1374 C.2     1  UNL1        0.0235
     30 C         142.7048  135.0733  156.4396 C.2     1  UNL1        0.1296
     31 N         143.6156  134.1813  157.2301 N.2     1  UNL1       -0.2591
     32 C         143.8781  132.9489  156.4164 C.3     1  UNL1        0.1461
@<TRIPOS>BOND
     1    22    23    1
     2    23    24    2
     3    24    25    1
     4    25    26    2
     5    26    27    1
     6    26    28    1
     7    28    29    2
     8    29    30    1
     9    30    18    1
    10    18    19    2
    11    18    20   am
    12     1    20    1
    13     1     2    1
    14     2     3    1
    15     3     4    1
    16     4     5    1
    17     5     7    1
    18     7     8    1
    19     8     9    1
    20     9    10    1
    21    10    12    1
    22    12    13    1
    23    12    14    1
    24    14    15    1
    25    14    16    2
    26    14    17    2
    27    10    11    1
    28     5     6    1
    29    30    31    2
    30    31    32    1
    31    32    23    1
    32    32    28    1
    33     6     1    1
    34    11     7    1
    35    20    21    1
