@<TRIPOS>MOLECULE
*****
 31 35 0 0 0
SMALL
GASTEIGER

@<TRIPOS>ATOM
      1 C         140.2832  140.2959  168.5557 C.ar    1  UNL1        0.1385
      2 C         141.7124  140.0171  168.9155 C.ar    1  UNL1        0.0374
      3 C         142.6808  139.5798  167.8566 C.ar    1  UNL1        0.0090
      4 C         142.2198  139.4215  166.4379 C.ar    1  UNL1        0.0231
      5 C         140.7906  139.7003  166.0783 C.ar    1  UNL1        0.0064
      6 C         139.8222  140.1376  167.1371 C.ar    1  UNL1        0.0348
      7 C         140.1284  139.6054  164.7356 C.3     1  UNL1        0.1223
      8 N         140.7321  139.2081  163.4211 N.am    1  UNL1       -0.2590
      9 C         139.7972  139.2117  162.2481 C.2     1  UNL1        0.3075
     10 O         138.3597  139.5969  162.4359 O.2     1  UNL1       -0.2523
     11 N         140.2998  138.8301  160.8873 N.am    1  UNL1       -0.2612
     12 C         141.7374  138.4449  160.6996 C.3     1  UNL1        0.1123
     13 C         142.2400  138.0634  159.3388 C.3     1  UNL1        0.0942
     14 N         141.3052  138.0670  158.1658 N.3     1  UNL1       -0.2660
     15 C         139.8677  138.4522  158.3534 C.3     1  UNL1        0.0942
     16 C         139.3650  138.8338  159.7142 C.3     1  UNL1        0.1123
     17 C         142.1468  138.8077  163.1247 C.3     1  UNL1        0.1072
     18 C         143.3075  138.7056  164.0694 C.3     1  UNL1        0.0837
     19 S         143.3400  138.9788  165.5439 S.3     1  UNL1       -0.1121
     20 C         139.5510  142.0100  170.3656 C.3     1  UNL1        0.2525
     21 O         139.3149  140.7331  169.6146 O.3     1  UNL1       -0.4714
     22 C         141.8079  137.6854  156.8050 C.3     1  UNL1        0.0993
     23 C         142.0504  136.2431  156.4723 C.ar    1  UNL1       -0.0029
     24 C         141.1836  135.5502  155.4631 C.ar    1  UNL1        0.0004
     25 C         141.4260  134.1078  155.1303 C.ar    1  UNL1        0.0399
     26 C         142.5353  133.3583  155.8068 C.ar    1  UNL1        0.1764
     27 C         143.4022  134.0511  156.8160 C.ar    1  UNL1        0.1762
     28 C         143.1597  135.4935  157.1488 C.ar    1  UNL1        0.0373
     29 O         144.4122  133.0617  157.3166 O.3     1  UNL1       -0.4346
     30 C         144.1697  131.7572  156.6168 C.3     1  UNL1        0.4294
     31 O         143.0097  131.9406  155.6837 O.3     1  UNL1       -0.4346
@<TRIPOS>BOND
     1    20    21    1
     2    21     1    1
     3     1     2   ar
     4     2     3   ar
     5     3     4   ar
     6     4     5   ar
     7     5     6   ar
     8     5     7    1
     9     7     8    1
    10     8     9   am
    11     9    10    2
    12     9    11   am
    13    11    12    1
    14    12    13    1
    15    13    14    1
    16    14    22    1
    17    22    23    1
    18    23    24   ar
    19    24    25   ar
    20    25    26   ar
    21    26    27   ar
    22    27    28   ar
    23    27    29    1
    24    29    30    1
    25    30    31    1
    26    14    15    1
    27    15    16    1
    28     8    17    1
    29    17    18    1
    30    18    19    1
    31     6     1   ar
    32    16    11    1
    33    19     4    1
    34    28    23   ar
    35    31    26    1
@<TRIPOS>MOLECULE
*****
 31 35 0 0 0
SMALL
GASTEIGER

@<TRIPOS>ATOM
      1 C         139.9743  147.0302  155.1962 C.ar    1  UNL1        0.1385
      2 C         140.9602  146.1996  154.4294 C.ar    1  UNL1        0.0374
      3 C         141.7827  145.1657  155.1397 C.ar    1  UNL1        0.0090
      4 C         141.6193  144.9624  156.6169 C.ar    1  UNL1        0.0231
      5 C         140.6334  145.7930  157.3836 C.ar    1  UNL1        0.0064
      6 C         139.8109  146.8269  156.6734 C.ar    1  UNL1        0.0348
      7 C         140.3161  145.7524  158.8492 C.3     1  UNL1        0.1223
      8 N         140.9065  144.8712  159.9099 N.am    1  UNL1       -0.2590
      9 C         140.3729  145.0753  161.2968 C.2     1  UNL1        0.3075
     10 O         139.3161  146.1094  161.5492 O.2     1  UNL1       -0.2523
     11 N         140.8961  144.2452  162.4313 N.am    1  UNL1       -0.2612
     12 C         141.9529  143.2110  162.1789 C.3     1  UNL1        0.1123
     13 C         142.4762  142.3809  163.3135 C.3     1  UNL1        0.0942
     14 N         141.9426  142.5849  164.7004 N.3     1  UNL1       -0.2660
     15 C         140.8858  143.6191  164.9529 C.3     1  UNL1        0.0942
     16 C         140.3626  144.4492  163.8183 C.3     1  UNL1        0.1123
     17 C         141.9599  143.8130  159.7669 C.3     1  UNL1        0.1072
     18 C         142.6831  143.3745  158.5281 C.3     1  UNL1        0.0837
     19 S         142.5315  143.8861  157.1262 S.3     1  UNL1       -0.1121
     20 C         138.8658  149.3794  155.1478 C.3     1  UNL1        0.2525
     21 O         139.1518  148.0641  154.4859 O.3     1  UNL1       -0.4714
     22 C         142.4658  141.7548  165.8349 C.3     1  UNL1        0.0993
     23 C         141.6623  141.6135  167.0936 C.ar    1  UNL1       -0.0029
     24 C         141.9730  142.4740  168.2822 C.ar    1  UNL1        0.0004
     25 C         141.1696  142.3327  169.5411 C.ar    1  UNL1        0.0399
     26 C         140.0554  141.3308  169.6111 C.ar    1  UNL1        0.1764
     27 C         139.7447  140.4702  168.4225 C.ar    1  UNL1        0.1762
     28 C         140.5482  140.6116  167.1637 C.ar    1  UNL1        0.0373
     29 O         138.5958  139.5766  168.7848 O.3     1  UNL1       -0.4346
     30 C         138.1963  139.8848  170.1974 C.3     1  UNL1        0.4294
     31 O         139.0984  140.9690  170.7081 O.3     1  UNL1       -0.4346
@<TRIPOS>BOND
     1    20    21    1
     2    21     1    1
     3     1     2   ar
     4     2     3   ar
     5     3     4   ar
     6     4     5   ar
     7     5     6   ar
     8     5     7    1
     9     7     8    1
    10     8     9   am
    11     9    10    2
    12     9    11   am
    13    11    12    1
    14    12    13    1
    15    13    14    1
    16    14    22    1
    17    22    23    1
    18    23    24   ar
    19    24    25   ar
    20    25    26   ar
    21    26    27   ar
    22    27    28   ar
    23    27    29    1
    24    29    30    1
    25    30    31    1
    26    14    15    1
    27    15    16    1
    28     8    17    1
    29    17    18    1
    30    18    19    1
    31     6     1   ar
    32    16    11    1
    33    19     4    1
    34    28    23   ar
    35    31    26    1
@<TRIPOS>MOLECULE
*****
 31 35 0 0 0
SMALL
GASTEIGER

@<TRIPOS>ATOM
      1 C         139.9661  140.6564  167.1887 C.ar    1  UNL1        0.1385
      2 C         138.9126  139.6209  166.9284 C.ar    1  UNL1        0.0374
      3 C         138.2929  139.5071  165.5670 C.ar    1  UNL1        0.0090
      4 C         138.7268  140.4290  164.4661 C.ar    1  UNL1        0.0231
      5 C         139.7802  141.4645  164.7265 C.ar    1  UNL1        0.0064
      6 C         140.3999  141.5783  166.0878 C.ar    1  UNL1        0.0348
      7 C         140.3532  142.4750  163.7774 C.3     1  UNL1        0.1223
      8 N         140.0142  142.6994  162.3335 N.am    1  UNL1       -0.2590
      9 C         140.7710  143.7999  161.6508 C.2     1  UNL1        0.3075
     10 O         141.7908  144.5934  162.4126 O.2     1  UNL1       -0.2523
     11 N         140.5079  144.1069  160.2064 N.am    1  UNL1       -0.2612
     12 C         139.4880  143.3134  159.4446 C.3     1  UNL1        0.1123
     13 C         139.2250  143.6204  158.0001 C.3     1  UNL1        0.0942
     14 N         139.9817  144.7209  157.3174 N.3     1  UNL1       -0.2660
     15 C         141.0016  145.5145  158.0791 C.3     1  UNL1        0.0942
     16 C         141.2647  145.2075  159.5235 C.3     1  UNL1        0.1123
     17 C         139.0186  141.9688  161.4822 C.3     1  UNL1        0.1072
     18 C         138.1159  140.8334  161.8644 C.3     1  UNL1        0.0837
     19 S         137.9861  140.1481  163.1924 S.3     1  UNL1       -0.1121
     20 C         139.8436  140.2741  169.7555 C.3     1  UNL1        0.2525
     21 O         140.5857  140.7701  168.5500 O.3     1  UNL1       -0.4714
     22 C         139.7186  145.0279  155.8729 C.3     1  UNL1        0.0993
     23 C         139.6703  146.4524  155.4056 C.ar    1  UNL1       -0.0029
     24 C         140.3998  146.8580  154.1594 C.ar    1  UNL1        0.0004
     25 C         140.3515  148.2826  153.6920 C.ar    1  UNL1        0.0399
     26 C         139.5737  149.3014  154.4710 C.ar    1  UNL1        0.1764
     27 C         138.8441  148.8959  155.7173 C.ar    1  UNL1        0.1762
     28 C         138.8925  147.4713  156.1846 C.ar    1  UNL1        0.0373
     29 O         138.1651  150.1121  156.2735 O.3     1  UNL1       -0.4346
     30 C         138.4749  151.2696  155.3711 C.3     1  UNL1        0.4294
     31 O         139.3455  150.7685  154.2570 O.3     1  UNL1       -0.4346
@<TRIPOS>BOND
     1    20    21    1
     2    21     1    1
     3     1     2   ar
     4     2     3   ar
     5     3     4   ar
     6     4     5   ar
     7     5     6   ar
     8     5     7    1
     9     7     8    1
    10     8     9   am
    11     9    10    2
    12     9    11   am
    13    11    12    1
    14    12    13    1
    15    13    14    1
    16    14    22    1
    17    22    23    1
    18    23    24   ar
    19    24    25   ar
    20    25    26   ar
    21    26    27   ar
    22    27    28   ar
    23    27    29    1
    24    29    30    1
    25    30    31    1
    26    14    15    1
    27    15    16    1
    28     8    17    1
    29    17    18    1
    30    18    19    1
    31     6     1   ar
    32    16    11    1
    33    19     4    1
    34    28    23   ar
    35    31    26    1
@<TRIPOS>MOLECULE
*****
 31 35 0 0 0
SMALL
GASTEIGER

@<TRIPOS>ATOM
      1 C         141.4942  140.6512  168.9488 C.ar    1  UNL1        0.1385
      2 C         140.0540  140.2828  169.1493 C.ar    1  UNL1        0.0374
      3 C         139.2303  139.8159  167.9860 C.ar    1  UNL1        0.0090
      4 C         139.8468  139.7173  166.6220 C.ar    1  UNL1        0.0231
      5 C         141.2868  140.0856  166.4215 C.ar    1  UNL1        0.0064
      6 C         142.1106  140.5525  167.5848 C.ar    1  UNL1        0.0348
      7 C         142.0913  140.0599  165.1556 C.3     1  UNL1        0.1223
      8 N         141.6540  139.6596  163.7777 N.am    1  UNL1       -0.2590
      9 C         142.7054  139.7440  162.7112 C.2     1  UNL1        0.3075
     10 O         144.0898  140.2061  163.0576 O.2     1  UNL1       -0.2523
     11 N         142.3725  139.3662  161.2982 N.am    1  UNL1       -0.2612
     12 C         140.9880  138.9040  160.9518 C.3     1  UNL1        0.1123
     13 C         140.6551  138.5262  159.5389 C.3     1  UNL1        0.0942
     14 N         141.7064  138.6106  158.4724 N.3     1  UNL1       -0.2660
     15 C         143.0908  139.0727  158.8187 C.3     1  UNL1        0.0942
     16 C         143.4238  139.4505  160.2316 C.3     1  UNL1        0.1123
     17 C         140.3046  139.1861  163.3254 C.3     1  UNL1        0.1072
     18 C         139.0590  138.9959  164.1391 C.3     1  UNL1        0.0837
     19 S         138.8552  139.2323  165.6063 S.3     1  UNL1       -0.1121
     20 C         143.3650  142.1737  169.9140 C.3     1  UNL1        0.2525
     21 O         142.3179  141.1181  170.1121 O.3     1  UNL1       -0.4714
     22 C         141.3734  138.2328  157.0595 C.3     1  UNL1        0.0993
     23 C         141.6870  136.8545  156.5578 C.ar    1  UNL1       -0.0029
     24 C         140.8415  136.2368  155.4839 C.ar    1  UNL1        0.0004
     25 C         141.1551  134.8583  154.9822 C.ar    1  UNL1        0.0399
     26 C         142.3143  134.0977  155.5545 C.ar    1  UNL1        0.1764
     27 C         143.1600  134.7153  156.6285 C.ar    1  UNL1        0.1762
     28 C         142.8463  136.0938  157.1302 C.ar    1  UNL1        0.0373
     29 O         144.2300  133.7317  156.9991 O.3     1  UNL1       -0.4346
     30 C         144.0458  132.5060  156.1543 C.3     1  UNL1        0.4294
     31 O         142.8618  132.7322  155.2614 O.3     1  UNL1       -0.4346
@<TRIPOS>BOND
     1    20    21    1
     2    21     1    1
     3     1     2   ar
     4     2     3   ar
     5     3     4   ar
     6     4     5   ar
     7     5     6   ar
     8     5     7    1
     9     7     8    1
    10     8     9   am
    11     9    10    2
    12     9    11   am
    13    11    12    1
    14    12    13    1
    15    13    14    1
    16    14    22    1
    17    22    23    1
    18    23    24   ar
    19    24    25   ar
    20    25    26   ar
    21    26    27   ar
    22    27    28   ar
    23    27    29    1
    24    29    30    1
    25    30    31    1
    26    14    15    1
    27    15    16    1
    28     8    17    1
    29    17    18    1
    30    18    19    1
    31     6     1   ar
    32    16    11    1
    33    19     4    1
    34    28    23   ar
    35    31    26    1
@<TRIPOS>MOLECULE
*****
 31 35 0 0 0
SMALL
GASTEIGER

@<TRIPOS>ATOM
      1 C         140.9858  140.9550  169.5948 C.ar    1  UNL1        0.1385
      2 C         141.9896  139.8740  169.3230 C.ar    1  UNL1        0.0374
      3 C         142.5995  139.7426  167.9588 C.ar    1  UNL1        0.0090
      4 C         142.2055  140.6923  166.8666 C.ar    1  UNL1        0.0231
      5 C         141.2018  141.7732  167.1385 C.ar    1  UNL1        0.0064
      6 C         140.5919  141.9046  168.5025 C.ar    1  UNL1        0.0348
      7 C         140.6733  142.8166  166.1992 C.3     1  UNL1        0.1223
      8 N         141.0183  143.0366  164.7560 N.am    1  UNL1       -0.2590
      9 C         140.3112  144.1763  164.0843 C.2     1  UNL1        0.3075
     10 O         139.3313  145.0099  164.8555 O.2     1  UNL1       -0.2523
     11 N         140.5840  144.4823  162.6415 N.am    1  UNL1       -0.2612
     12 C         141.5640  143.6487  161.8702 C.3     1  UNL1        0.1123
     13 C         141.8369  143.9547  160.4274 C.3     1  UNL1        0.0942
     14 N         141.1298  145.0943  159.7557 N.3     1  UNL1       -0.2660
     15 C         140.1498  145.9281  160.5269 C.3     1  UNL1        0.0942
     16 C         139.8770  145.6220  161.9697 C.3     1  UNL1        0.1123
     17 C         141.9767  142.2677  163.8958 C.3     1  UNL1        0.1072
     18 C         142.8270  141.0888  164.2661 C.3     1  UNL1        0.0837
     19 S         142.9289  140.3876  165.5883 S.3     1  UNL1       -0.1121
     20 C         139.8947  142.4232  171.4397 C.3     1  UNL1        0.2525
     21 O         140.3760  141.0863  170.9590 O.3     1  UNL1       -0.4714
     22 C         141.4027  145.4004  158.3128 C.3     1  UNL1        0.0993
     23 C         140.2849  145.3608  157.3134 C.ar    1  UNL1       -0.0029
     24 C         139.8606  146.6173  156.6127 C.ar    1  UNL1        0.0004
     25 C         138.7428  146.5778  155.6131 C.ar    1  UNL1        0.0399
     26 C         138.0494  145.2817  155.3143 C.ar    1  UNL1        0.1764
     27 C         138.4737  144.0251  156.0150 C.ar    1  UNL1        0.1762
     28 C         139.5915  144.0647  157.0146 C.ar    1  UNL1        0.0373
     29 O         137.6103  142.9035  155.5187 O.3     1  UNL1       -0.4346
     30 C         136.6523  143.4667  154.5112 C.3     1  UNL1        0.4294
     31 O         136.9237  144.9366  154.3849 O.3     1  UNL1       -0.4346
@<TRIPOS>BOND
     1    20    21    1
     2    21     1    1
     3     1     2   ar
     4     2     3   ar
     5     3     4   ar
     6     4     5   ar
     7     5     6   ar
     8     5     7    1
     9     7     8    1
    10     8     9   am
    11     9    10    2
    12     9    11   am
    13    11    12    1
    14    12    13    1
    15    13    14    1
    16    14    22    1
    17    22    23    1
    18    23    24   ar
    19    24    25   ar
    20    25    26   ar
    21    26    27   ar
    22    27    28   ar
    23    27    29    1
    24    29    30    1
    25    30    31    1
    26    14    15    1
    27    15    16    1
    28     8    17    1
    29    17    18    1
    30    18    19    1
    31     6     1   ar
    32    16    11    1
    33    19     4    1
    34    28    23   ar
    35    31    26    1
@<TRIPOS>MOLECULE
*****
 31 35 0 0 0
SMALL
GASTEIGER

@<TRIPOS>ATOM
      1 C         140.4806  141.7133  169.0246 C.ar    1  UNL1        0.1385
      2 C         139.7975  140.3786  168.9814 C.ar    1  UNL1        0.0374
      3 C         139.2789  139.8432  167.6797 C.ar    1  UNL1        0.0090
      4 C         139.4435  140.6427  166.4211 C.ar    1  UNL1        0.0231
      5 C         140.1265  141.9773  166.4644 C.ar    1  UNL1        0.0064
      6 C         140.6451  142.5127  167.7661 C.ar    1  UNL1        0.0348
      7 C         140.3925  142.9288  165.3356 C.3     1  UNL1        0.1223
      8 N         140.0412  142.7804  163.8849 N.am    1  UNL1       -0.2590
      9 C         140.4478  143.9191  162.9971 C.2     1  UNL1        0.3075
     10 O         141.1583  145.1058  163.5774 O.2     1  UNL1       -0.2523
     11 N         140.1439  143.8709  161.5290 N.am    1  UNL1       -0.2612
     12 C         139.4333  142.6841  160.9487 C.3     1  UNL1        0.1123
     13 C         139.1294  142.6359  159.4806 C.3     1  UNL1        0.0942
     14 N         139.5359  143.7745  158.5928 N.3     1  UNL1       -0.2660
     15 C         140.2465  144.9613  159.1730 C.3     1  UNL1        0.0942
     16 C         140.5504  145.0095  160.6411 C.3     1  UNL1        0.1123
     17 C         139.3372  141.6440  163.2047 C.3     1  UNL1        0.1072
     18 C         138.8104  140.3753  163.8070 C.3     1  UNL1        0.0837
     19 S         138.8577  139.9296  165.2385 S.3     1  UNL1       -0.1121
     20 C         141.8476  141.3819  171.2090 C.3     1  UNL1        0.2525
     21 O         140.9991  142.2486  170.3264 O.3     1  UNL1       -0.4714
     22 C         139.2320  143.7263  157.1247 C.3     1  UNL1        0.0993
     23 C         138.5227  142.5390  156.5442 C.ar    1  UNL1       -0.0029
     24 C         139.3122  141.3794  156.0133 C.ar    1  UNL1        0.0004
     25 C         138.6029  140.1920  155.4328 C.ar    1  UNL1        0.0399
     26 C         137.1040  140.1642  155.3832 C.ar    1  UNL1        0.1764
     27 C         136.3144  141.3238  155.9141 C.ar    1  UNL1        0.1762
     28 C         137.0237  142.5112  156.4947 C.ar    1  UNL1        0.0373
     29 O         134.8579  141.0149  155.7322 O.3     1  UNL1       -0.4346
     30 C         134.7473  139.6644  155.0888 C.3     1  UNL1        0.4294
     31 O         136.1354  139.1386  154.8731 O.3     1  UNL1       -0.4346
@<TRIPOS>BOND
     1    20    21    1
     2    21     1    1
     3     1     2   ar
     4     2     3   ar
     5     3     4   ar
     6     4     5   ar
     7     5     6   ar
     8     5     7    1
     9     7     8    1
    10     8     9   am
    11     9    10    2
    12     9    11   am
    13    11    12    1
    14    12    13    1
    15    13    14    1
    16    14    22    1
    17    22    23    1
    18    23    24   ar
    19    24    25   ar
    20    25    26   ar
    21    26    27   ar
    22    27    28   ar
    23    27    29    1
    24    29    30    1
    25    30    31    1
    26    14    15    1
    27    15    16    1
    28     8    17    1
    29    17    18    1
    30    18    19    1
    31     6     1   ar
    32    16    11    1
    33    19     4    1
    34    28    23   ar
    35    31    26    1
@<TRIPOS>MOLECULE
*****
 31 35 0 0 0
SMALL
GASTEIGER

@<TRIPOS>ATOM
      1 C         140.4026  136.2297  154.2436 C.ar    1  UNL1        0.1385
      2 C         141.7896  135.7226  154.5061 C.ar    1  UNL1        0.0374
      3 C         142.5083  136.1196  155.7615 C.ar    1  UNL1        0.0090
      4 C         141.8398  137.0237  156.7544 C.ar    1  UNL1        0.0231
      5 C         140.4529  137.5308  156.4919 C.ar    1  UNL1        0.0064
      6 C         139.7342  137.1339  155.2365 C.ar    1  UNL1        0.0348
      7 C         139.6107  138.4343  157.3431 C.3     1  UNL1        0.1223
      8 N         139.9476  139.0538  158.6671 N.am    1  UNL1       -0.2590
      9 C         138.8812  139.9186  159.2711 C.2     1  UNL1        0.3075
     10 O         137.5795  140.1162  158.5525 O.2     1  UNL1       -0.2523
     11 N         139.1166  140.5858  160.5937 N.am    1  UNL1       -0.2612
     12 C         140.4184  140.3881  161.3124 C.3     1  UNL1        0.1123
     13 C         140.6538  141.0553  162.6350 C.3     1  UNL1        0.0942
     14 N         139.5875  141.9201  163.2391 N.3     1  UNL1       -0.2660
     15 C         138.2857  142.1178  162.5206 C.3     1  UNL1        0.0942
     16 C         138.0503  141.4506  161.1979 C.3     1  UNL1        0.1123
     17 C         141.2098  138.9227  159.4666 C.3     1  UNL1        0.1072
     18 C         142.4470  138.1399  159.1400 C.3     1  UNL1        0.0837
     19 S         142.7274  137.2948  157.9329 S.3     1  UNL1       -0.1121
     20 C         138.5431  136.6648  152.4821 C.3     1  UNL1        0.2525
     21 O         139.6840  135.8328  152.9882 O.3     1  UNL1       -0.4714
     22 C         139.8229  142.5873  164.5617 C.3     1  UNL1        0.0993
     23 C         139.7799  141.7818  165.8263 C.ar    1  UNL1       -0.0029
     24 C         139.1076  140.4409  165.8388 C.ar    1  UNL1        0.0004
     25 C         139.0645  139.6353  167.1034 C.ar    1  UNL1        0.0399
     26 C         139.6937  140.1706  168.3555 C.ar    1  UNL1        0.1764
     27 C         140.3659  141.5114  168.3430 C.ar    1  UNL1        0.1762
     28 C         140.4090  142.3170  167.0783 C.ar    1  UNL1        0.0373
     29 O         140.8955  141.7774  169.7209 O.3     1  UNL1       -0.4346
     30 C         140.5505  140.6008  170.5852 C.3     1  UNL1        0.4294
     31 O         139.8078  139.6078  169.7413 O.3     1  UNL1       -0.4346
@<TRIPOS>BOND
     1    20    21    1
     2    21     1    1
     3     1     2   ar
     4     2     3   ar
     5     3     4   ar
     6     4     5   ar
     7     5     6   ar
     8     5     7    1
     9     7     8    1
    10     8     9   am
    11     9    10    2
    12     9    11   am
    13    11    12    1
    14    12    13    1
    15    13    14    1
    16    14    22    1
    17    22    23    1
    18    23    24   ar
    19    24    25   ar
    20    25    26   ar
    21    26    27   ar
    22    27    28   ar
    23    27    29    1
    24    29    30    1
    25    30    31    1
    26    14    15    1
    27    15    16    1
    28     8    17    1
    29    17    18    1
    30    18    19    1
    31     6     1   ar
    32    16    11    1
    33    19     4    1
    34    28    23   ar
    35    31    26    1
@<TRIPOS>MOLECULE
*****
 31 35 0 0 0
SMALL
GASTEIGER

@<TRIPOS>ATOM
      1 C         140.0004  144.7021  154.8147 C.ar    1  UNL1        0.1385
      2 C         140.5016  145.9938  155.3897 C.ar    1  UNL1        0.0374
      3 C         140.6155  146.1588  156.8762 C.ar    1  UNL1        0.0090
      4 C         140.2283  145.0322  157.7878 C.ar    1  UNL1        0.0231
      5 C         139.7272  143.7407  157.2128 C.ar    1  UNL1        0.0064
      6 C         139.6133  143.5756  155.7263 C.ar    1  UNL1        0.0348
      7 C         139.2914  142.5013  157.9368 C.3     1  UNL1        0.1223
      8 N         139.2491  142.2475  159.4146 N.am    1  UNL1       -0.2590
      9 C         138.7590  140.8915  159.8282 C.2     1  UNL1        0.3075
     10 O         138.3501  139.8921  158.7872 O.2     1  UNL1       -0.2523
     11 N         138.6777  140.5351  161.2830 N.am    1  UNL1       -0.2612
     12 C         139.0865  141.5346  162.3241 C.3     1  UNL1        0.1123
     13 C         139.0052  141.1782  163.7789 C.3     1  UNL1        0.0942
     14 N         138.5151  139.8223  164.1926 N.3     1  UNL1       -0.2660
     15 C         138.1062  138.8227  163.1515 C.3     1  UNL1        0.0942
     16 C         138.1875  139.1791  161.6968 C.3     1  UNL1        0.1123
     17 C         139.6322  143.1703  160.5333 C.3     1  UNL1        0.1072
     18 C         140.1521  144.5749  160.4506 C.3     1  UNL1        0.0837
     19 S         140.4175  145.4035  159.2287 S.3     1  UNL1       -0.1121
     20 C         140.9961  145.0061  152.4344 C.3     1  UNL1        0.2525
     21 O         139.8865  144.5371  153.3282 O.3     1  UNL1       -0.4714
     22 C         138.4338  139.4659  165.6473 C.3     1  UNL1        0.0993
     23 C         139.6549  139.5638  166.5129 C.ar    1  UNL1       -0.0029
     24 C         141.0051  139.2424  165.9440 C.ar    1  UNL1        0.0004
     25 C         142.2263  139.3403  166.8095 C.ar    1  UNL1        0.0399
     26 C         142.0973  139.7595  168.2440 C.ar    1  UNL1        0.1764
     27 C         140.7470  140.0808  168.8129 C.ar    1  UNL1        0.1762
     28 C         139.5258  139.9829  167.9473 C.ar    1  UNL1        0.0373
     29 O         140.9294  140.4640  170.2515 O.3     1  UNL1       -0.4346
     30 C         142.3924  140.3795  170.5719 C.3     1  UNL1        0.4294
     31 O         143.1142  139.9441  169.3311 O.3     1  UNL1       -0.4346
@<TRIPOS>BOND
     1    20    21    1
     2    21     1    1
     3     1     2   ar
     4     2     3   ar
     5     3     4   ar
     6     4     5   ar
     7     5     6   ar
     8     5     7    1
     9     7     8    1
    10     8     9   am
    11     9    10    2
    12     9    11   am
    13    11    12    1
    14    12    13    1
    15    13    14    1
    16    14    22    1
    17    22    23    1
    18    23    24   ar
    19    24    25   ar
    20    25    26   ar
    21    26    27   ar
    22    27    28   ar
    23    27    29    1
    24    29    30    1
    25    30    31    1
    26    14    15    1
    27    15    16    1
    28     8    17    1
    29    17    18    1
    30    18    19    1
    31     6     1   ar
    32    16    11    1
    33    19     4    1
    34    28    23   ar
    35    31    26    1
@<TRIPOS>MOLECULE
*****
 31 35 0 0 0
SMALL
GASTEIGER

@<TRIPOS>ATOM
      1 C         142.6882  141.0953  168.3867 C.ar    1  UNL1        0.1385
      2 C         142.7877  139.6297  168.0827 C.ar    1  UNL1        0.0374
      3 C         142.5598  139.1367  166.6844 C.ar    1  UNL1        0.0090
      4 C         142.2324  140.1092  165.5903 C.ar    1  UNL1        0.0231
      5 C         142.1329  141.5745  165.8943 C.ar    1  UNL1        0.0064
      6 C         142.3608  142.0677  167.2925 C.ar    1  UNL1        0.0348
      7 C         141.8202  142.7047  164.9588 C.3     1  UNL1        0.1223
      8 N         141.5298  142.6484  163.4882 N.am    1  UNL1       -0.2590
      9 C         141.2522  143.9667  162.8288 C.2     1  UNL1        0.3075
     10 O         141.2767  145.2298  163.6375 O.2     1  UNL1       -0.2523
     11 N         140.9500  144.0220  161.3606 N.am    1  UNL1       -0.2612
     12 C         140.9255  142.7589  160.5518 C.3     1  UNL1        0.1123
     13 C         140.6234  142.8141  159.0836 C.3     1  UNL1        0.0942
     14 N         140.3457  144.1324  158.4242 N.3     1  UNL1       -0.2660
     15 C         140.3702  145.3956  159.2328 C.3     1  UNL1        0.0942
     16 C         140.6723  145.3403  160.7010 C.3     1  UNL1        0.1123
     17 C         141.4804  141.4481  162.5901 C.3     1  UNL1        0.1072
     18 C         141.7092  140.0077  162.9404 C.3     1  UNL1        0.0837
     19 S         142.0438  139.4118  164.2757 S.3     1  UNL1       -0.1121
     20 C         142.3536  142.9107  170.2148 C.3     1  UNL1        0.2525
     21 O         142.9160  141.5883  169.7849 O.3     1  UNL1       -0.4714
     22 C         140.0436  144.1877  156.9560 C.3     1  UNL1        0.0993
     23 C         138.7590  143.6168  156.4326 C.ar    1  UNL1       -0.0029
     24 C         138.0448  144.2922  155.2996 C.ar    1  UNL1        0.0004
     25 C         136.7602  143.7214  154.7761 C.ar    1  UNL1        0.0399
     26 C         136.1898  142.4753  155.3858 C.ar    1  UNL1        0.1764
     27 C         136.9039  141.7998  156.5188 C.ar    1  UNL1        0.1762
     28 C         138.1886  142.3707  157.0422 C.ar    1  UNL1        0.0373
     29 O         136.1061  140.5935  156.9163 O.3     1  UNL1       -0.4346
     30 C         134.8987  140.5232  156.0289 C.3     1  UNL1        0.4294
     31 O         134.9504  141.6862  155.0830 O.3     1  UNL1       -0.4346
@<TRIPOS>BOND
     1    20    21    1
     2    21     1    1
     3     1     2   ar
     4     2     3   ar
     5     3     4   ar
     6     4     5   ar
     7     5     6   ar
     8     5     7    1
     9     7     8    1
    10     8     9   am
    11     9    10    2
    12     9    11   am
    13    11    12    1
    14    12    13    1
    15    13    14    1
    16    14    22    1
    17    22    23    1
    18    23    24   ar
    19    24    25   ar
    20    25    26   ar
    21    26    27   ar
    22    27    28   ar
    23    27    29    1
    24    29    30    1
    25    30    31    1
    26    14    15    1
    27    15    16    1
    28     8    17    1
    29    17    18    1
    30    18    19    1
    31     6     1   ar
    32    16    11    1
    33    19     4    1
    34    28    23   ar
    35    31    26    1
