@<TRIPOS>MOLECULE
*****
 33 36 0 0 0
SMALL
GASTEIGER

@<TRIPOS>ATOM
      1 C         143.1875  141.5523  161.1186 C.ar    1  UNL1        0.2394
      2 N         142.4367  140.3412  161.5871 N.ar    1  UNL1       -0.1779
      3 C         142.3139  139.1428  160.6935 C.ar    1  UNL1        0.2232
      4 N         142.9420  139.1553  159.3313 N.ar    1  UNL1       -0.2128
      5 C         143.6928  140.3664  158.8629 C.ar    1  UNL1        0.0952
      6 C         144.4120  140.6680  157.5815 C.ar    1  UNL1        0.0268
      7 C         144.9792  142.0529  157.6833 C.ar    1  UNL1        0.0372
      8 S         144.6106  142.6072  159.0275 S.2     1  UNL1       -0.0803
      9 C         143.8155  141.5649  159.7565 C.ar    1  UNL1        0.1008
     10 N         141.5630  137.9316  161.1620 N.pl3   1  UNL1       -0.2824
     11 H         141.6264  137.0879  160.6586 H       1  UNL1        0.1551
     12 C         140.7156  138.0060  162.3975 C.ar    1  UNL1        0.0528
     13 C         141.0450  137.1514  163.5854 C.ar    1  UNL1        0.0155
     14 C         140.1975  137.2258  164.8209 C.ar    1  UNL1        0.0138
     15 C         139.0207  138.1547  164.8684 C.ar    1  UNL1        0.0959
     16 C         138.6914  139.0092  163.6804 C.ar    1  UNL1        0.1509
     17 F         137.5145  139.9382  163.7278 F       1  UNL1       -0.2034
     18 C         139.5388  138.9349  162.4449 C.ar    1  UNL1        0.0450
     19 C         138.1732  138.2292  166.1038 C.1     1  UNL1        0.1027
     20 N         137.3258  138.3035  167.3391 N.1     1  UNL1       -0.1908
     21 O         143.3102  142.7508  162.0123 O.3     1  UNL1       -0.4362
     22 C         145.3932  141.9848  164.0308 C.3     1  UNL1        0.0342
     23 C         143.9868  142.2619  164.4726 C.ar    1  UNL1        0.0124
     24 C         143.6218  142.1560  165.9236 C.ar    1  UNL1       -0.0012
     25 C         142.2153  142.4331  166.3654 C.ar    1  UNL1        0.0003
     26 C         141.1739  142.8160  165.3562 C.ar    1  UNL1       -0.0012
     27 C         141.5388  142.9219  163.9051 C.ar    1  UNL1        0.0124
     28 C         140.4974  143.3048  162.8958 C.3     1  UNL1        0.0342
     29 C         142.9452  142.6449  163.4633 C.ar    1  UNL1        0.1391
     30 C         141.8504  142.3271  167.8166 C.2     1  UNL1        0.0109
     31 C         140.5839  142.9543  168.3191 C.2     1  UNL1        0.0780
     32 C         140.2190  142.8483  169.7702 C.1     1  UNL1        0.1011
     33 N         139.8541  142.7424  171.2213 N.1     1  UNL1       -0.1908
@<TRIPOS>BOND
     1    22    23    1
     2    23    24   ar
     3    24    25   ar
     4    25    30    1
     5    30    31    2
     6    31    32    1
     7    32    33    3
     8    25    26   ar
     9    26    27   ar
    10    27    28    1
    11    27    29   ar
    12    29    21    1
    13    21     1    1
    14     1     2   ar
    15     2     3   ar
    16     3    10    1
    17    10    12    1
    18    12    13   ar
    19    13    14   ar
    20    14    15   ar
    21    15    19    1
    22    19    20    3
    23    15    16   ar
    24    16    17    1
    25    16    18   ar
    26     3     4   ar
    27     4     5   ar
    28     5     6   ar
    29     6     7   ar
    30     7     8   ar
    31     8     9   ar
    32    29    23   ar
    33     9     1   ar
    34    18    12   ar
    35     9     5   ar
    36    10    11    1
@<TRIPOS>MOLECULE
*****
 33 36 0 0 0
SMALL
GASTEIGER

@<TRIPOS>ATOM
      1 C         140.2913  141.9535  166.8907 C.ar    1  UNL1        0.2394
      2 N         139.6505  140.9705  165.9563 N.ar    1  UNL1       -0.1779
      3 C         139.0349  139.7140  166.4964 C.ar    1  UNL1        0.2232
      4 N         139.0600  139.4402  167.9711 N.ar    1  UNL1       -0.2128
      5 C         139.7008  140.4231  168.9055 C.ar    1  UNL1        0.0952
      6 C         139.8762  140.4241  170.3952 C.ar    1  UNL1        0.0268
      7 C         140.6003  141.6815  170.7757 C.ar    1  UNL1        0.0372
      8 S         140.8724  142.4575  169.5212 S.2     1  UNL1       -0.0803
      9 C         140.3165  141.6798  168.3653 C.ar    1  UNL1        0.1008
     10 N         138.3940  138.7310  165.5619 N.pl3   1  UNL1       -0.2824
     11 H         137.9900  137.9062  165.9164 H       1  UNL1        0.1551
     12 C         138.3687  139.0048  164.0873 C.ar    1  UNL1        0.0528
     13 C         138.7239  137.9179  163.1165 C.ar    1  UNL1        0.0155
     14 C         138.6986  138.1917  161.6419 C.ar    1  UNL1        0.0138
     15 C         138.3182  139.5523  161.1381 C.ar    1  UNL1        0.0959
     16 C         137.9631  140.6393  162.1090 C.ar    1  UNL1        0.1509
     17 F         137.5827  142.0000  161.6053 F       1  UNL1       -0.2034
     18 C         137.9884  140.3655  163.5836 C.ar    1  UNL1        0.0450
     19 C         138.2930  139.8262  159.6635 C.1     1  UNL1        0.1027
     20 N         138.2677  140.1001  158.1891 N.1     1  UNL1       -0.1908
     21 O         140.9070  143.2101  166.3506 O.3     1  UNL1       -0.4362
     22 C         138.5632  144.9256  165.5998 C.3     1  UNL1        0.0342
     23 C         139.5168  144.4541  164.5423 C.ar    1  UNL1        0.0124
     24 C         139.2986  144.8404  163.1094 C.ar    1  UNL1       -0.0012
     25 C         140.2523  144.3689  162.0519 C.ar    1  UNL1        0.0003
     26 C         141.4241  143.5112  162.4273 C.ar    1  UNL1       -0.0012
     27 C         141.6424  143.1249  163.8602 C.ar    1  UNL1        0.0124
     28 C         142.8143  142.2672  164.2356 C.3     1  UNL1        0.0342
     29 C         140.6888  143.5964  164.9177 C.ar    1  UNL1        0.1391
     30 C         140.0340  144.7552  160.6190 C.2     1  UNL1        0.0109
     31 C         141.1905  145.2146  159.7816 C.2     1  UNL1        0.0780
     32 C         140.9722  145.6009  158.3486 C.1     1  UNL1        0.1011
     33 N         140.7539  145.9871  156.9158 N.1     1  UNL1       -0.1908
@<TRIPOS>BOND
     1    22    23    1
     2    23    24   ar
     3    24    25   ar
     4    25    30    1
     5    30    31    2
     6    31    32    1
     7    32    33    3
     8    25    26   ar
     9    26    27   ar
    10    27    28    1
    11    27    29   ar
    12    29    21    1
    13    21     1    1
    14     1     2   ar
    15     2     3   ar
    16     3    10    1
    17    10    12    1
    18    12    13   ar
    19    13    14   ar
    20    14    15   ar
    21    15    19    1
    22    19    20    3
    23    15    16   ar
    24    16    17    1
    25    16    18   ar
    26     3     4   ar
    27     4     5   ar
    28     5     6   ar
    29     6     7   ar
    30     7     8   ar
    31     8     9   ar
    32    29    23   ar
    33     9     1   ar
    34    18    12   ar
    35     9     5   ar
    36    10    11    1
@<TRIPOS>MOLECULE
*****
 33 36 0 0 0
SMALL
GASTEIGER

@<TRIPOS>ATOM
      1 C         141.8579  140.7508  167.4331 C.ar    1  UNL1        0.2394
      2 N         140.7553  140.0885  166.6613 N.ar    1  UNL1       -0.1779
      3 C         139.5015  139.6588  167.3635 C.ar    1  UNL1        0.2232
      4 N         139.3502  139.8913  168.8377 N.ar    1  UNL1       -0.2128
      5 C         140.4527  140.5536  169.6095 C.ar    1  UNL1        0.0952
      6 C         140.5875  140.9122  171.0598 C.ar    1  UNL1        0.0268
      7 C         141.9247  141.5635  171.2538 C.ar    1  UNL1        0.0372
      8 S         142.6163  141.6076  169.9235 S.2     1  UNL1       -0.0803
      9 C         141.7066  140.9834  168.9072 C.ar    1  UNL1        0.1008
     10 N         138.3989  138.9964  166.5916 N.pl3   1  UNL1       -0.2824
     11 H         137.7358  138.4396  167.0601 H       1  UNL1        0.1551
     12 C         138.3067  139.1826  165.1061 C.ar    1  UNL1        0.0528
     13 C         138.6838  138.0606  164.1848 C.ar    1  UNL1        0.0155
     14 C         138.5916  138.2468  162.6992 C.ar    1  UNL1        0.0138
     15 C         138.1223  139.5549  162.1350 C.ar    1  UNL1        0.0959
     16 C         137.7451  140.6769  163.0563 C.ar    1  UNL1        0.1509
     17 F         137.2757  141.9852  162.4922 F       1  UNL1       -0.2034
     18 C         137.8374  140.4908  164.5419 C.ar    1  UNL1        0.0450
     19 C         138.0300  139.7412  160.6494 C.1     1  UNL1        0.1027
     20 N         137.9378  139.9275  159.1640 N.1     1  UNL1       -0.1908
     21 O         143.1117  141.1806  166.7308 O.3     1  UNL1       -0.4362
     22 C         143.9897  138.3931  166.0532 C.3     1  UNL1        0.0342
     23 C         143.7792  139.3995  164.9611 C.ar    1  UNL1        0.0124
     24 C         144.0077  139.0122  163.5301 C.ar    1  UNL1       -0.0012
     25 C         143.7972  140.0186  162.4378 C.ar    1  UNL1        0.0003
     26 C         143.3582  141.4123  162.7766 C.ar    1  UNL1       -0.0012
     27 C         143.1296  141.7997  164.2077 C.ar    1  UNL1        0.0124
     28 C         142.6907  143.1933  164.5465 C.3     1  UNL1        0.0342
     29 C         143.3402  140.7933  165.2998 C.ar    1  UNL1        0.1391
     30 C         144.0257  139.6312  161.0068 C.2     1  UNL1        0.0109
     31 C         142.8642  139.2456  160.1396 C.2     1  UNL1        0.0780
     32 C         143.0927  138.8582  158.7086 C.1     1  UNL1        0.1011
     33 N         143.3211  138.4708  157.2776 N.1     1  UNL1       -0.1908
@<TRIPOS>BOND
     1    22    23    1
     2    23    24   ar
     3    24    25   ar
     4    25    30    1
     5    30    31    2
     6    31    32    1
     7    32    33    3
     8    25    26   ar
     9    26    27   ar
    10    27    28    1
    11    27    29   ar
    12    29    21    1
    13    21     1    1
    14     1     2   ar
    15     2     3   ar
    16     3    10    1
    17    10    12    1
    18    12    13   ar
    19    13    14   ar
    20    14    15   ar
    21    15    19    1
    22    19    20    3
    23    15    16   ar
    24    16    17    1
    25    16    18   ar
    26     3     4   ar
    27     4     5   ar
    28     5     6   ar
    29     6     7   ar
    30     7     8   ar
    31     8     9   ar
    32    29    23   ar
    33     9     1   ar
    34    18    12   ar
    35     9     5   ar
    36    10    11    1
@<TRIPOS>MOLECULE
*****
 33 36 0 0 0
SMALL
GASTEIGER

@<TRIPOS>ATOM
      1 C         141.4556  138.6480  160.9200 C.ar    1  UNL1        0.2394
      2 N         140.1968  139.2748  161.4421 N.ar    1  UNL1       -0.1779
      3 C         139.0916  139.6385  160.4955 C.ar    1  UNL1        0.2232
      4 N         139.2451  139.3755  159.0267 N.ar    1  UNL1       -0.2128
      5 C         140.5039  138.7487  158.5046 C.ar    1  UNL1        0.0952
      6 C         140.9378  138.3725  157.1189 C.ar    1  UNL1        0.0268
      7 C         142.3112  137.7763  157.2091 C.ar    1  UNL1        0.0372
      8 S         142.7262  137.7840  158.6506 S.2     1  UNL1       -0.0803
      9 C         141.6091  138.3850  159.4512 C.ar    1  UNL1        0.1008
     10 N         137.8328  140.2653  161.0177 N.pl3   1  UNL1       -0.2824
     11 H         136.9589  139.9860  160.6605 H       1  UNL1        0.1551
     12 C         137.9054  141.3177  162.0841 C.ar    1  UNL1        0.0528
     13 C         137.8034  140.9293  163.5293 C.ar    1  UNL1        0.0155
     14 C         137.8760  141.9816  164.5957 C.ar    1  UNL1        0.0138
     15 C         138.0507  143.4225  164.2169 C.ar    1  UNL1        0.0959
     16 C         138.1527  143.8109  162.7717 C.ar    1  UNL1        0.1509
     17 F         138.3273  145.2518  162.3927 F       1  UNL1       -0.2034
     18 C         138.0800  142.7585  161.7053 C.ar    1  UNL1        0.0450
     19 C         138.1233  144.4749  165.2833 C.1     1  UNL1        0.1027
     20 N         138.1959  145.5273  166.3496 N.1     1  UNL1       -0.1908
     21 O         142.5609  138.2843  161.8666 O.3     1  UNL1       -0.4362
     22 C         140.9854  136.9707  164.0558 C.3     1  UNL1        0.0342
     23 C         141.7927  138.2009  164.3471 C.ar    1  UNL1        0.0124
     24 C         141.8122  138.7743  165.7330 C.ar    1  UNL1       -0.0012
     25 C         142.6195  140.0046  166.0244 C.ar    1  UNL1        0.0003
     26 C         143.4072  140.6613  164.9299 C.ar    1  UNL1       -0.0012
     27 C         143.3877  140.0879  163.5439 C.ar    1  UNL1        0.0124
     28 C         144.1754  140.7447  162.4494 C.3     1  UNL1        0.0342
     29 C         142.5804  138.8577  163.2525 C.ar    1  UNL1        0.1391
     30 C         142.6390  140.5779  167.4104 C.2     1  UNL1        0.0109
     31 C         143.0658  141.9993  167.6280 C.2     1  UNL1        0.0780
     32 C         143.0853  142.5727  169.0140 C.1     1  UNL1        0.1011
     33 N         143.1049  143.1460  170.4000 N.1     1  UNL1       -0.1908
@<TRIPOS>BOND
     1    22    23    1
     2    23    24   ar
     3    24    25   ar
     4    25    30    1
     5    30    31    2
     6    31    32    1
     7    32    33    3
     8    25    26   ar
     9    26    27   ar
    10    27    28    1
    11    27    29   ar
    12    29    21    1
    13    21     1    1
    14     1     2   ar
    15     2     3   ar
    16     3    10    1
    17    10    12    1
    18    12    13   ar
    19    13    14   ar
    20    14    15   ar
    21    15    19    1
    22    19    20    3
    23    15    16   ar
    24    16    17    1
    25    16    18   ar
    26     3     4   ar
    27     4     5   ar
    28     5     6   ar
    29     6     7   ar
    30     7     8   ar
    31     8     9   ar
    32    29    23   ar
    33     9     1   ar
    34    18    12   ar
    35     9     5   ar
    36    10    11    1
@<TRIPOS>MOLECULE
*****
 33 36 0 0 0
SMALL
GASTEIGER

@<TRIPOS>ATOM
      1 C         141.7691  140.7158  167.3683 C.ar    1  UNL1        0.2394
      2 N         140.6379  140.1888  166.5360 N.ar    1  UNL1       -0.1779
      3 C         139.3703  139.7330  167.1958 C.ar    1  UNL1        0.2232
      4 N         139.2339  139.8041  168.6879 N.ar    1  UNL1       -0.2128
      5 C         140.3651  140.3311  169.5202 C.ar    1  UNL1        0.0952
      6 C         140.5195  140.5187  171.0004 C.ar    1  UNL1        0.0268
      7 C         141.8827  141.0904  171.2553 C.ar    1  UNL1        0.0372
      8 S         142.5706  141.2562  169.9327 S.2     1  UNL1       -0.0803
      9 C         141.6327  140.7869  168.8603 C.ar    1  UNL1        0.1008
     10 N         138.2391  139.2059  166.3635 N.pl3   1  UNL1       -0.2824
     11 H         137.5209  138.6807  166.7850 H       1  UNL1        0.1551
     12 C         138.2020  139.4792  164.8891 C.ar    1  UNL1        0.0528
     13 C         137.7224  140.8078  164.3843 C.ar    1  UNL1        0.0155
     14 C         137.6854  141.0811  162.9099 C.ar    1  UNL1        0.0138
     15 C         138.1280  140.0258  161.9402 C.ar    1  UNL1        0.0959
     16 C         138.6076  138.6971  162.4449 C.ar    1  UNL1        0.1509
     17 F         139.0502  137.6417  161.4752 F       1  UNL1       -0.2034
     18 C         138.6446  138.4239  163.9193 C.ar    1  UNL1        0.0450
     19 C         138.0910  140.2989  160.4657 C.1     1  UNL1        0.1027
     20 N         138.0540  140.5721  158.9913 N.1     1  UNL1       -0.1908
     21 O         143.0367  141.1716  166.7084 O.3     1  UNL1       -0.4362
     22 C         142.6812  143.2110  164.5371 C.3     1  UNL1        0.0342
     23 C         143.1358  141.8231  164.1953 C.ar    1  UNL1        0.0124
     24 C         143.4127  141.4548  162.7678 C.ar    1  UNL1       -0.0012
     25 C         143.8674  140.0667  162.4260 C.ar    1  UNL1        0.0003
     26 C         144.0451  139.0471  163.5116 C.ar    1  UNL1       -0.0012
     27 C         143.7682  139.4153  164.9391 C.ar    1  UNL1        0.0124
     28 C         143.9459  138.3957  166.0247 C.3     1  UNL1        0.0342
     29 C         143.3136  140.8033  165.2809 C.ar    1  UNL1        0.1391
     30 C         144.1442  139.6985  160.9984 C.2     1  UNL1        0.0109
     31 C         143.7233  140.6188  159.8914 C.2     1  UNL1        0.0780
     32 C         144.0002  140.2505  158.4638 C.1     1  UNL1        0.1011
     33 N         144.2770  139.8823  157.0363 N.1     1  UNL1       -0.1908
@<TRIPOS>BOND
     1    22    23    1
     2    23    24   ar
     3    24    25   ar
     4    25    30    1
     5    30    31    2
     6    31    32    1
     7    32    33    3
     8    25    26   ar
     9    26    27   ar
    10    27    28    1
    11    27    29   ar
    12    29    21    1
    13    21     1    1
    14     1     2   ar
    15     2     3   ar
    16     3    10    1
    17    10    12    1
    18    12    13   ar
    19    13    14   ar
    20    14    15   ar
    21    15    19    1
    22    19    20    3
    23    15    16   ar
    24    16    17    1
    25    16    18   ar
    26     3     4   ar
    27     4     5   ar
    28     5     6   ar
    29     6     7   ar
    30     7     8   ar
    31     8     9   ar
    32    29    23   ar
    33     9     1   ar
    34    18    12   ar
    35     9     5   ar
    36    10    11    1
@<TRIPOS>MOLECULE
*****
 33 36 0 0 0
SMALL
GASTEIGER

@<TRIPOS>ATOM
      1 C         140.3070  139.9082  167.0296 C.ar    1  UNL1        0.2394
      2 N         141.3921  139.4376  166.1071 N.ar    1  UNL1       -0.1779
      3 C         142.7618  139.1490  166.6459 C.ar    1  UNL1        0.2232
      4 N         143.0466  139.3310  168.1074 N.ar    1  UNL1       -0.2128
      5 C         141.9616  139.8017  169.0299 C.ar    1  UNL1        0.0952
      6 C         141.9454  140.0709  170.5055 C.ar    1  UNL1        0.0268
      7 C         140.5656  140.5258  170.8785 C.ar    1  UNL1        0.0372
      8 S         139.7290  140.5378  169.6336 S.2     1  UNL1       -0.0803
      9 C         140.5918  140.0903  168.4910 C.ar    1  UNL1        0.1008
     10 N         143.8469  138.6784  165.7233 N.pl3   1  UNL1       -0.2824
     11 H         144.5780  138.1170  166.0691 H       1  UNL1        0.1551
     12 C         143.8181  139.0630  164.2737 C.ar    1  UNL1        0.0528
     13 C         144.7211  140.1486  163.7677 C.ar    1  UNL1        0.0155
     14 C         144.6923  140.5332  162.3181 C.ar    1  UNL1        0.0138
     15 C         143.7604  139.8323  161.3746 C.ar    1  UNL1        0.0959
     16 C         142.8574  138.7467  161.8806 C.ar    1  UNL1        0.1509
     17 F         141.9254  138.0457  160.9371 F       1  UNL1       -0.2034
     18 C         142.8862  138.3621  163.3302 C.ar    1  UNL1        0.0450
     19 C         143.7315  140.2169  159.9250 C.1     1  UNL1        0.1027
     20 N         143.7026  140.6014  158.4755 N.1     1  UNL1       -0.1908
     21 O         138.9372  140.1968  166.4907 O.3     1  UNL1       -0.4362
     22 C         138.7895  137.4657  165.2579 C.3     1  UNL1        0.0342
     23 C         138.5884  138.6846  164.4071 C.ar    1  UNL1        0.0124
     24 C         138.3134  138.5379  162.9399 C.ar    1  UNL1       -0.0012
     25 C         138.1123  139.7569  162.0889 C.ar    1  UNL1        0.0003
     26 C         138.1862  141.1223  162.7053 C.ar    1  UNL1       -0.0012
     27 C         138.4612  141.2690  164.1726 C.ar    1  UNL1        0.0124
     28 C         138.5351  142.6344  164.7890 C.3     1  UNL1        0.0342
     29 C         138.6623  140.0501  165.0235 C.ar    1  UNL1        0.1391
     30 C         137.8373  139.6101  160.6216 C.2     1  UNL1        0.0109
     31 C         138.3164  140.6573  159.6605 C.2     1  UNL1        0.0780
     32 C         138.0414  140.5106  158.1931 C.1     1  UNL1        0.1011
     33 N         137.7664  140.3638  156.7259 N.1     1  UNL1       -0.1908
@<TRIPOS>BOND
     1    22    23    1
     2    23    24   ar
     3    24    25   ar
     4    25    30    1
     5    30    31    2
     6    31    32    1
     7    32    33    3
     8    25    26   ar
     9    26    27   ar
    10    27    28    1
    11    27    29   ar
    12    29    21    1
    13    21     1    1
    14     1     2   ar
    15     2     3   ar
    16     3    10    1
    17    10    12    1
    18    12    13   ar
    19    13    14   ar
    20    14    15   ar
    21    15    19    1
    22    19    20    3
    23    15    16   ar
    24    16    17    1
    25    16    18   ar
    26     3     4   ar
    27     4     5   ar
    28     5     6   ar
    29     6     7   ar
    30     7     8   ar
    31     8     9   ar
    32    29    23   ar
    33     9     1   ar
    34    18    12   ar
    35     9     5   ar
    36    10    11    1
@<TRIPOS>MOLECULE
*****
 33 36 0 0 0
SMALL
GASTEIGER

@<TRIPOS>ATOM
      1 C         140.5702  141.8497  166.2097 C.ar    1  UNL1        0.2394
      2 N         140.1836  140.8620  165.1490 N.ar    1  UNL1       -0.1779
      3 C         139.4463  139.6103  165.5226 C.ar    1  UNL1        0.2232
      4 N         139.0955  139.3462  166.9570 N.ar    1  UNL1       -0.2128
      5 C         139.4821  140.3339  168.0176 C.ar    1  UNL1        0.0952
      6 C         139.2739  140.3445  169.5031 C.ar    1  UNL1        0.0268
      7 C         139.8826  141.6027  170.0475 C.ar    1  UNL1        0.0372
      8 S         140.4669  142.3698  168.8985 S.2     1  UNL1       -0.0803
      9 C         140.2194  141.5856  167.6440 C.ar    1  UNL1        0.1008
     10 N         139.0598  138.6226  164.4619 N.pl3   1  UNL1       -0.2824
     11 H         138.2758  138.0415  164.5925 H       1  UNL1        0.1551
     12 C         139.8676  138.5202  163.2022 C.ar    1  UNL1        0.0528
     13 C         141.2685  137.9861  163.2509 C.ar    1  UNL1        0.0155
     14 C         142.0764  137.8837  161.9913 C.ar    1  UNL1        0.0138
     15 C         141.4834  138.3153  160.6828 C.ar    1  UNL1        0.0959
     16 C         140.0826  138.8494  160.6340 C.ar    1  UNL1        0.1509
     17 F         139.4895  139.2810  159.3256 F       1  UNL1       -0.2034
     18 C         139.2747  138.9518  161.8937 C.ar    1  UNL1        0.0450
     19 C         142.2913  138.2129  159.4230 C.1     1  UNL1        0.1027
     20 N         143.0990  138.1105  158.1633 N.1     1  UNL1       -0.1908
     21 O         141.3075  143.1014  165.8360 O.3     1  UNL1       -0.4362
     22 C         143.2944  142.8186  163.6061 C.3     1  UNL1        0.0342
     23 C         142.0415  143.6165  163.3976 C.ar    1  UNL1        0.0124
     24 C         141.7820  144.2731  162.0741 C.ar    1  UNL1       -0.0012
     25 C         140.5290  145.0710  161.8656 C.ar    1  UNL1        0.0003
     26 C         139.5356  145.2124  162.9805 C.ar    1  UNL1       -0.0012
     27 C         139.7951  144.5558  164.3040 C.ar    1  UNL1        0.0124
     28 C         138.8017  144.6972  165.4189 C.3     1  UNL1        0.0342
     29 C         141.0480  143.7579  164.5125 C.ar    1  UNL1        0.1391
     30 C         140.2696  145.7276  160.5421 C.2     1  UNL1        0.0109
     31 C         140.4977  144.9665  159.2698 C.2     1  UNL1        0.0780
     32 C         140.2383  145.6231  157.9463 C.1     1  UNL1        0.1011
     33 N         139.9789  146.2796  156.6228 N.1     1  UNL1       -0.1908
@<TRIPOS>BOND
     1    22    23    1
     2    23    24   ar
     3    24    25   ar
     4    25    30    1
     5    30    31    2
     6    31    32    1
     7    32    33    3
     8    25    26   ar
     9    26    27   ar
    10    27    28    1
    11    27    29   ar
    12    29    21    1
    13    21     1    1
    14     1     2   ar
    15     2     3   ar
    16     3    10    1
    17    10    12    1
    18    12    13   ar
    19    13    14   ar
    20    14    15   ar
    21    15    19    1
    22    19    20    3
    23    15    16   ar
    24    16    17    1
    25    16    18   ar
    26     3     4   ar
    27     4     5   ar
    28     5     6   ar
    29     6     7   ar
    30     7     8   ar
    31     8     9   ar
    32    29    23   ar
    33     9     1   ar
    34    18    12   ar
    35     9     5   ar
    36    10    11    1
@<TRIPOS>MOLECULE
*****
 33 36 0 0 0
SMALL
GASTEIGER

@<TRIPOS>ATOM
      1 C         142.9891  139.5824  160.8953 C.ar    1  UNL1        0.2394
      2 N         142.7496  141.0394  161.1592 N.ar    1  UNL1       -0.1779
      3 C         142.1707  141.9110  160.0846 C.ar    1  UNL1        0.2232
      4 N         141.8312  141.3257  158.7458 N.ar    1  UNL1       -0.2128
      5 C         142.0706  139.8687  158.4819 C.ar    1  UNL1        0.0952
      6 C         141.8368  139.0166  157.2697 C.ar    1  UNL1        0.0268
      7 C         142.2712  137.6183  157.5953 C.ar    1  UNL1        0.0372
      8 S         142.7736  137.6062  159.0087 S.2     1  UNL1       -0.0803
      9 C         142.6496  138.9970  159.5566 C.ar    1  UNL1        0.1008
     10 N         141.9312  143.3682  160.3486 N.pl3   1  UNL1       -0.2824
     11 H         142.2860  144.0456  159.7285 H       1  UNL1        0.1551
     12 C         141.1513  143.7931  161.5573 C.ar    1  UNL1        0.0528
     13 C         141.8633  144.3709  162.7444 C.ar    1  UNL1        0.0155
     14 C         141.0833  144.7958  163.9531 C.ar    1  UNL1        0.0138
     15 C         139.5913  144.6429  163.9748 C.ar    1  UNL1        0.0959
     16 C         138.8792  144.0652  162.7877 C.ar    1  UNL1        0.1509
     17 F         137.3872  143.9122  162.8093 F       1  UNL1       -0.2034
     18 C         139.6592  143.6402  161.5790 C.ar    1  UNL1        0.0450
     19 C         138.8112  145.0678  165.1835 C.1     1  UNL1        0.1027
     20 N         138.0312  145.4927  166.3922 N.1     1  UNL1       -0.1908
     21 O         143.5681  138.7107  161.9700 O.3     1  UNL1       -0.4362
     22 C         145.1861  140.4899  163.7635 C.3     1  UNL1        0.0342
     23 C         143.9660  139.7984  164.2956 C.ar    1  UNL1        0.0124
     24 C         143.5549  139.9964  165.7245 C.ar    1  UNL1       -0.0012
     25 C         142.3348  139.3049  166.2567 C.ar    1  UNL1        0.0003
     26 C         141.5258  138.4153  165.3599 C.ar    1  UNL1       -0.0012
     27 C         141.9369  138.2172  163.9310 C.ar    1  UNL1        0.0124
     28 C         141.1279  137.3277  163.0343 C.3     1  UNL1        0.0342
     29 C         143.1570  138.9088  163.3989 C.ar    1  UNL1        0.1391
     30 C         141.9237  139.5030  167.6856 C.2     1  UNL1        0.0109
     31 C         140.5617  140.0435  168.0061 C.2     1  UNL1        0.0780
     32 C         140.1507  140.2416  169.4351 C.1     1  UNL1        0.1011
     33 N         139.7395  140.4396  170.8640 N.1     1  UNL1       -0.1908
@<TRIPOS>BOND
     1    22    23    1
     2    23    24   ar
     3    24    25   ar
     4    25    30    1
     5    30    31    2
     6    31    32    1
     7    32    33    3
     8    25    26   ar
     9    26    27   ar
    10    27    28    1
    11    27    29   ar
    12    29    21    1
    13    21     1    1
    14     1     2   ar
    15     2     3   ar
    16     3    10    1
    17    10    12    1
    18    12    13   ar
    19    13    14   ar
    20    14    15   ar
    21    15    19    1
    22    19    20    3
    23    15    16   ar
    24    16    17    1
    25    16    18   ar
    26     3     4   ar
    27     4     5   ar
    28     5     6   ar
    29     6     7   ar
    30     7     8   ar
    31     8     9   ar
    32    29    23   ar
    33     9     1   ar
    34    18    12   ar
    35     9     5   ar
    36    10    11    1
@<TRIPOS>MOLECULE
*****
 33 36 0 0 0
SMALL
GASTEIGER

@<TRIPOS>ATOM
      1 C         141.1617  140.2218  166.8350 C.ar    1  UNL1        0.2394
      2 N         140.4871  141.3460  166.1065 N.ar    1  UNL1       -0.1779
      3 C         140.3231  142.6799  166.7726 C.ar    1  UNL1        0.2232
      4 N         140.8338  142.8896  168.1673 N.ar    1  UNL1       -0.2128
      5 C         141.5084  141.7653  168.8959 C.ar    1  UNL1        0.0952
      6 C         142.1086  141.6754  170.2676 C.ar    1  UNL1        0.0268
      7 C         142.6435  140.2858  170.4493 C.ar    1  UNL1        0.0372
      8 S         142.3739  139.5170  169.1898 S.2     1  UNL1       -0.0803
      9 C         141.6724  140.4314  168.2297 C.ar    1  UNL1        0.1008
     10 N         139.6484  143.8043  166.0439 N.pl3   1  UNL1       -0.2824
     11 H         138.9418  144.3255  166.4892 H       1  UNL1        0.1551
     12 C         140.0504  144.1343  164.6370 C.ar    1  UNL1        0.0528
     13 C         139.0021  144.3038  163.5776 C.ar    1  UNL1        0.0155
     14 C         139.4041  144.6339  162.1707 C.ar    1  UNL1        0.0138
     15 C         140.8544  144.7945  161.8231 C.ar    1  UNL1        0.0959
     16 C         141.9027  144.6251  162.8825 C.ar    1  UNL1        0.1509
     17 F         143.3531  144.7857  162.5351 F       1  UNL1       -0.2034
     18 C         141.5007  144.2950  164.2894 C.ar    1  UNL1        0.0450
     19 C         141.2564  145.1246  160.4162 C.1     1  UNL1        0.1027
     20 N         141.6585  145.4547  159.0094 N.1     1  UNL1       -0.1908
     21 O         141.3257  138.8878  166.1689 O.3     1  UNL1       -0.4362
     22 C         138.5189  137.9536  165.6695 C.3     1  UNL1        0.0342
     23 C         139.4376  138.2195  164.5140 C.ar    1  UNL1        0.0124
     24 C         138.9530  138.0183  163.1088 C.ar    1  UNL1       -0.0012
     25 C         139.8718  138.2842  161.9532 C.ar    1  UNL1        0.0003
     26 C         141.2751  138.7513  162.2029 C.ar    1  UNL1       -0.0012
     27 C         141.7598  138.9525  163.6082 C.ar    1  UNL1        0.0124
     28 C         143.1631  139.4196  163.8579 C.3     1  UNL1        0.0342
     29 C         140.8411  138.6866  164.7637 C.ar    1  UNL1        0.1391
     30 C         139.3872  138.0830  160.5480 C.2     1  UNL1        0.0109
     31 C         140.1775  138.6301  159.3965 C.2     1  UNL1        0.0780
     32 C         139.6928  138.4288  157.9912 C.1     1  UNL1        0.1011
     33 N         139.2081  138.2276  156.5860 N.1     1  UNL1       -0.1908
@<TRIPOS>BOND
     1    22    23    1
     2    23    24   ar
     3    24    25   ar
     4    25    30    1
     5    30    31    2
     6    31    32    1
     7    32    33    3
     8    25    26   ar
     9    26    27   ar
    10    27    28    1
    11    27    29   ar
    12    29    21    1
    13    21     1    1
    14     1     2   ar
    15     2     3   ar
    16     3    10    1
    17    10    12    1
    18    12    13   ar
    19    13    14   ar
    20    14    15   ar
    21    15    19    1
    22    19    20    3
    23    15    16   ar
    24    16    17    1
    25    16    18   ar
    26     3     4   ar
    27     4     5   ar
    28     5     6   ar
    29     6     7   ar
    30     7     8   ar
    31     8     9   ar
    32    29    23   ar
    33     9     1   ar
    34    18    12   ar
    35     9     5   ar
    36    10    11    1
