@<TRIPOS>MOLECULE
*****
 27 29 0 0 0
SMALL
GASTEIGER

@<TRIPOS>ATOM
      1 C         144.5501  140.3880  163.6421 C.3     1  UNL1        0.0031
      2 C         144.0032  139.5657  164.7712 C.3     1  UNL1        0.0174
      3 C         142.9516  138.5300  164.5039 C.3     1  UNL1        0.0721
      4 N         142.4469  138.3166  163.1075 N.3     1  UNL1       -0.2724
      5 C         142.9938  139.1389  161.9785 C.3     1  UNL1        0.0721
      6 C         144.0454  140.1746  162.2458 C.3     1  UNL1        0.0174
      7 C         145.6017  141.4237  163.9094 C.3     1  UNL1        0.0048
      8 C         145.2269  142.7229  164.5588 C.3     1  UNL1        0.0264
      9 C         141.1684  144.5200  163.8183 C.ar    1  UNL1        0.1387
     10 C         142.3368  144.9325  162.9730 C.ar    1  UNL1        0.0366
     11 C         143.6897  144.3335  163.2199 C.ar    1  UNL1       -0.0012
     12 C         143.8741  143.3219  164.3119 C.ar    1  UNL1       -0.0220
     13 C         142.7056  142.9094  165.1572 C.ar    1  UNL1       -0.0012
     14 C         141.3528  143.5084  164.9104 C.ar    1  UNL1        0.0366
     15 O         139.8155  145.1191  163.5715 O.3     1  UNL1       -0.4724
     16 C         138.8329  144.4128  162.6851 C.3     1  UNL1        0.2434
     17 F         137.5094  143.6066  164.7703 F       1  UNL1       -0.2302
     18 C         137.7446  143.5758  163.2891 C.3     1  UNL1        0.2403
     19 C         141.3953  137.2809  162.8402 C.3     1  UNL1        0.0768
     20 C         139.9473  137.6715  162.8148 C.3     1  UNL1        0.0445
     21 C         139.3210  138.3086  164.0198 C.ar    1  UNL1       -0.0102
     22 C         138.7622  137.4511  165.1163 C.ar    1  UNL1       -0.0034
     23 C         138.1360  138.0881  166.3213 C.ar    1  UNL1       -0.0003
     24 C         138.0686  139.5826  166.4298 C.ar    1  UNL1        0.0008
     25 C         138.6274  140.4402  165.3332 C.ar    1  UNL1        0.0111
     26 C         139.2536  139.8032  164.1282 C.ar    1  UNL1        0.0537
     27 CL        139.8124  140.6607  163.0317 Cl      1  UNL1       -0.0826
@<TRIPOS>BOND
     1    17    18    1
     2    18    16    1
     3    16    15    1
     4    15     9    1
     5     9    10   ar
     6    10    11   ar
     7    11    12   ar
     8    12     8    1
     9     8     7    1
    10     7     1    1
    11     1     2    1
    12     2     3    1
    13     3     4    1
    14     4    19    1
    15    19    20    1
    16    20    21    1
    17    21    22   ar
    18    22    23   ar
    19    23    24   ar
    20    24    25   ar
    21    25    26   ar
    22    26    27    1
    23     4     5    1
    24     5     6    1
    25    12    13   ar
    26    13    14   ar
    27    14     9   ar
    28     6     1    1
    29    26    21   ar
@<TRIPOS>MOLECULE
*****
 27 29 0 0 0
SMALL
GASTEIGER

@<TRIPOS>ATOM
      1 C         144.3707  139.9346  164.0392 C.3     1  UNL1        0.0031
      2 C         143.9482  139.1741  162.8172 C.3     1  UNL1        0.0174
      3 C         142.7919  138.2213  162.8893 C.3     1  UNL1        0.0721
      4 N         142.0581  138.0291  164.1834 N.3     1  UNL1       -0.2724
      5 C         142.4806  138.7896  165.4053 C.3     1  UNL1        0.0721
      6 C         143.6369  139.7423  165.3332 C.3     1  UNL1        0.0174
      7 C         145.5270  140.8873  163.9671 C.3     1  UNL1        0.0048
      8 C         145.4835  142.0492  163.0194 C.3     1  UNL1        0.0264
      9 C         141.8227  144.6589  162.8258 C.ar    1  UNL1        0.1387
     10 C         142.7994  144.8195  163.9528 C.ar    1  UNL1        0.0366
     11 C         144.0197  143.9496  164.0173 C.ar    1  UNL1       -0.0012
     12 C         144.2632  142.9191  162.9549 C.ar    1  UNL1       -0.0220
     13 C         143.2865  142.7585  161.8279 C.ar    1  UNL1       -0.0012
     14 C         142.0662  143.6284  161.7634 C.ar    1  UNL1        0.0366
     15 O         140.6024  145.5288  162.7613 O.3     1  UNL1       -0.4724
     16 C         139.2804  145.0029  163.2365 C.3     1  UNL1        0.2434
     17 F         139.8751  143.8468  165.4858 F       1  UNL1       -0.2302
     18 C         139.0332  144.8107  164.7034 C.3     1  UNL1        0.2403
     19 C         140.9018  137.0764  164.2555 C.3     1  UNL1        0.0768
     20 C         139.5895  137.5311  164.8225 C.3     1  UNL1        0.0445
     21 C         138.9278  138.7653  164.2851 C.ar    1  UNL1       -0.0102
     22 C         138.4817  138.8146  162.8538 C.ar    1  UNL1       -0.0034
     23 C         137.8200  140.0488  162.3165 C.ar    1  UNL1       -0.0003
     24 C         137.6042  141.2338  163.2104 C.ar    1  UNL1        0.0008
     25 C         138.0503  141.1846  164.6418 C.ar    1  UNL1        0.0111
     26 C         138.7120  139.9504  165.1791 C.ar    1  UNL1        0.0537
     27 CL        139.1580  139.9012  166.6104 Cl      1  UNL1       -0.0826
@<TRIPOS>BOND
     1    17    18    1
     2    18    16    1
     3    16    15    1
     4    15     9    1
     5     9    10   ar
     6    10    11   ar
     7    11    12   ar
     8    12     8    1
     9     8     7    1
    10     7     1    1
    11     1     2    1
    12     2     3    1
    13     3     4    1
    14     4    19    1
    15    19    20    1
    16    20    21    1
    17    21    22   ar
    18    22    23   ar
    19    23    24   ar
    20    24    25   ar
    21    25    26   ar
    22    26    27    1
    23     4     5    1
    24     5     6    1
    25    12    13   ar
    26    13    14   ar
    27    14     9   ar
    28     6     1    1
    29    26    21   ar
@<TRIPOS>MOLECULE
*****
 27 29 0 0 0
SMALL
GASTEIGER

@<TRIPOS>ATOM
      1 C         138.3456  143.3154  162.6497 C.3     1  UNL1        0.0031
      2 C         138.7715  142.9002  161.2726 C.3     1  UNL1        0.0174
      3 C         138.5115  141.5016  160.7969 C.3     1  UNL1        0.0721
      4 N         137.8257  140.5182  161.6984 N.3     1  UNL1       -0.2724
      5 C         137.3999  140.9334  163.0754 C.3     1  UNL1        0.0721
      6 C         137.6598  142.3320  163.5510 C.3     1  UNL1        0.0174
      7 C         138.6056  144.7141  163.1253 C.3     1  UNL1        0.0048
      8 C         139.4302  144.9464  164.3565 C.3     1  UNL1        0.0264
      9 C         143.6235  143.3309  164.5940 C.ar    1  UNL1        0.1387
     10 C         142.4970  142.5930  165.2546 C.ar    1  UNL1        0.0366
     11 C         141.0992  143.1316  165.1754 C.ar    1  UNL1       -0.0012
     12 C         140.8280  144.4079  164.4357 C.ar    1  UNL1       -0.0220
     13 C         141.9545  145.1458  163.7751 C.ar    1  UNL1       -0.0012
     14 C         143.3523  144.6073  163.8542 C.ar    1  UNL1        0.0366
     15 O         145.0213  142.7924  164.6731 O.3     1  UNL1       -0.4724
     16 C         145.5338  141.8761  163.6019 C.3     1  UNL1        0.2434
     17 F         145.2153  139.5389  164.6911 F       1  UNL1       -0.2302
     18 C         145.0371  140.4629  163.5229 C.3     1  UNL1        0.2403
     19 C         137.5657  139.1195  161.2227 C.3     1  UNL1        0.0768
     20 C         138.6914  138.1307  161.1499 C.3     1  UNL1        0.0445
     21 C         139.6112  137.9538  162.3215 C.ar    1  UNL1       -0.0102
     22 C         139.0451  137.7259  163.6917 C.ar    1  UNL1       -0.0034
     23 C         139.9649  137.5489  164.8633 C.ar    1  UNL1       -0.0003
     24 C         141.4508  137.6000  164.6647 C.ar    1  UNL1        0.0008
     25 C         142.0169  137.8279  163.2945 C.ar    1  UNL1        0.0111
     26 C         141.0972  138.0048  162.1229 C.ar    1  UNL1        0.0537
     27 CL        141.6632  138.2328  160.7526 Cl      1  UNL1       -0.0826
@<TRIPOS>BOND
     1    17    18    1
     2    18    16    1
     3    16    15    1
     4    15     9    1
     5     9    10   ar
     6    10    11   ar
     7    11    12   ar
     8    12     8    1
     9     8     7    1
    10     7     1    1
    11     1     2    1
    12     2     3    1
    13     3     4    1
    14     4    19    1
    15    19    20    1
    16    20    21    1
    17    21    22   ar
    18    22    23   ar
    19    23    24   ar
    20    24    25   ar
    21    25    26   ar
    22    26    27    1
    23     4     5    1
    24     5     6    1
    25    12    13   ar
    26    13    14   ar
    27    14     9   ar
    28     6     1    1
    29    26    21   ar
@<TRIPOS>MOLECULE
*****
 27 29 0 0 0
SMALL
GASTEIGER

@<TRIPOS>ATOM
      1 C         144.1567  143.0394  163.6946 C.3     1  UNL1        0.0031
      2 C         144.0797  143.1707  162.2023 C.3     1  UNL1        0.0174
      3 C         142.9603  143.9471  161.5745 C.3     1  UNL1        0.0721
      4 N         141.9178  144.5921  162.4390 N.3     1  UNL1       -0.2724
      5 C         141.9948  144.4607  163.9312 C.3     1  UNL1        0.0721
      6 C         143.1142  143.6844  164.5590 C.3     1  UNL1        0.0174
      7 C         145.2761  142.2630  164.3224 C.3     1  UNL1        0.0048
      8 C         145.5549  140.8575  163.8790 C.3     1  UNL1        0.0264
      9 C         142.1484  138.0033  163.1726 C.ar    1  UNL1        0.1387
     10 C         142.9690  138.4925  162.0163 C.ar    1  UNL1        0.0366
     11 C         144.1045  139.4439  162.2517 C.ar    1  UNL1       -0.0012
     12 C         144.4194  139.9061  163.6435 C.ar    1  UNL1       -0.0220
     13 C         143.5988  139.4168  164.7999 C.ar    1  UNL1       -0.0012
     14 C         142.4633  138.4654  164.5644 C.ar    1  UNL1        0.0366
     15 O         141.0129  137.0519  162.9372 O.3     1  UNL1       -0.4724
     16 C         139.6120  137.5727  162.8106 C.3     1  UNL1        0.2434
     17 F         139.0726  137.1685  165.3197 F       1  UNL1       -0.2302
     18 C         138.8240  137.9122  164.0410 C.3     1  UNL1        0.2403
     19 C         140.7984  145.3685  161.8112 C.3     1  UNL1        0.0768
     20 C         139.4356  145.3594  162.4381 C.3     1  UNL1        0.0445
     21 C         138.7584  144.0559  162.7418 C.ar    1  UNL1       -0.0102
     22 C         138.5351  143.0540  161.6480 C.ar    1  UNL1       -0.0034
     23 C         137.8579  141.7505  161.9518 C.ar    1  UNL1       -0.0003
     24 C         137.4041  141.4489  163.3493 C.ar    1  UNL1        0.0008
     25 C         137.6274  142.4507  164.4431 C.ar    1  UNL1        0.0111
     26 C         138.3046  143.7543  164.1394 C.ar    1  UNL1        0.0537
     27 CL        138.5279  144.7561  165.2331 Cl      1  UNL1       -0.0826
@<TRIPOS>BOND
     1    17    18    1
     2    18    16    1
     3    16    15    1
     4    15     9    1
     5     9    10   ar
     6    10    11   ar
     7    11    12   ar
     8    12     8    1
     9     8     7    1
    10     7     1    1
    11     1     2    1
    12     2     3    1
    13     3     4    1
    14     4    19    1
    15    19    20    1
    16    20    21    1
    17    21    22   ar
    18    22    23   ar
    19    23    24   ar
    20    24    25   ar
    21    25    26   ar
    22    26    27    1
    23     4     5    1
    24     5     6    1
    25    12    13   ar
    26    13    14   ar
    27    14     9   ar
    28     6     1    1
    29    26    21   ar
@<TRIPOS>MOLECULE
*****
 27 29 0 0 0
SMALL
GASTEIGER

@<TRIPOS>ATOM
      1 C         137.8586  140.5906  161.5319 C.3     1  UNL1        0.0031
      2 C         138.6955  141.5214  160.7053 C.3     1  UNL1        0.0174
      3 C         138.9905  142.9057  161.2020 C.3     1  UNL1        0.0721
      4 N         138.4486  143.3592  162.5252 N.3     1  UNL1       -0.2724
      5 C         137.6117  142.4284  163.3517 C.3     1  UNL1        0.0721
      6 C         137.3167  141.0440  162.8550 C.3     1  UNL1        0.0174
      7 C         137.5636  139.2062  161.0353 C.3     1  UNL1        0.0048
      8 C         137.8980  138.0171  161.8861 C.3     1  UNL1        0.0264
      9 C         141.6440  138.0166  164.3797 C.ar    1  UNL1        0.1387
     10 C         140.3005  138.0707  165.0445 C.ar    1  UNL1        0.0366
     11 C         139.0518  138.0708  164.2133 C.ar    1  UNL1       -0.0012
     12 C         139.1467  138.0169  162.7173 C.ar    1  UNL1       -0.0220
     13 C         140.4902  137.9629  162.0525 C.ar    1  UNL1       -0.0012
     14 C         141.7389  137.9628  162.8837 C.ar    1  UNL1        0.0366
     15 O         142.8926  138.0165  165.2109 O.3     1  UNL1       -0.4724
     16 C         143.7404  139.2513  165.2910 C.3     1  UNL1        0.2434
     17 F         145.5763  140.7481  164.2235 F       1  UNL1       -0.2302
     18 C         144.9288  139.4051  164.3886 C.3     1  UNL1        0.2403
     19 C         138.7436  144.7435  163.0218 C.3     1  UNL1        0.0768
     20 C         139.5191  144.9354  164.2914 C.3     1  UNL1        0.0445
     21 C         140.9603  144.5253  164.3592 C.ar    1  UNL1       -0.0102
     22 C         142.0110  145.3648  163.6950 C.ar    1  UNL1       -0.0034
     23 C         143.4523  144.9547  163.7628 C.ar    1  UNL1       -0.0003
     24 C         143.8428  143.7050  164.4947 C.ar    1  UNL1        0.0008
     25 C         142.7921  142.8654  165.1589 C.ar    1  UNL1        0.0111
     26 C         141.3508  143.2756  165.0912 C.ar    1  UNL1        0.0537
     27 CL        140.3001  142.4360  165.7553 Cl      1  UNL1       -0.0826
@<TRIPOS>BOND
     1    17    18    1
     2    18    16    1
     3    16    15    1
     4    15     9    1
     5     9    10   ar
     6    10    11   ar
     7    11    12   ar
     8    12     8    1
     9     8     7    1
    10     7     1    1
    11     1     2    1
    12     2     3    1
    13     3     4    1
    14     4    19    1
    15    19    20    1
    16    20    21    1
    17    21    22   ar
    18    22    23   ar
    19    23    24   ar
    20    24    25   ar
    21    25    26   ar
    22    26    27    1
    23     4     5    1
    24     5     6    1
    25    12    13   ar
    26    13    14   ar
    27    14     9   ar
    28     6     1    1
    29    26    21   ar
@<TRIPOS>MOLECULE
*****
 27 29 0 0 0
SMALL
GASTEIGER

@<TRIPOS>ATOM
      1 C         137.8749  142.6927  163.9143 C.3     1  UNL1        0.0031
      2 C         138.1079  141.5197  164.8198 C.3     1  UNL1        0.0174
      3 C         138.1935  140.1358  164.2474 C.3     1  UNL1        0.0721
      4 N         138.0462  139.9251  162.7695 N.3     1  UNL1       -0.2724
      5 C         137.8132  141.0981  161.8642 C.3     1  UNL1        0.0721
      6 C         137.7276  142.4819  162.4366 C.3     1  UNL1        0.0174
      7 C         137.7893  144.0766  164.4867 C.3     1  UNL1        0.0048
      8 C         139.0093  144.7221  165.0741 C.3     1  UNL1        0.0264
      9 C         143.0707  143.8482  163.3447 C.ar    1  UNL1        0.1387
     10 C         142.1682  144.8414  162.6747 C.ar    1  UNL1        0.0366
     11 C         140.8143  145.1327  163.2511 C.ar    1  UNL1       -0.0012
     12 C         140.3631  144.4308  164.4976 C.ar    1  UNL1       -0.0220
     13 C         141.2657  143.4376  165.1676 C.ar    1  UNL1       -0.0012
     14 C         142.6195  143.1464  164.5911 C.ar    1  UNL1        0.0366
     15 O         144.4246  143.5569  162.7682 O.3     1  UNL1       -0.4724
     16 C         144.8799  142.1373  162.6034 C.3     1  UNL1        0.2434
     17 F         145.4881  140.2887  164.3248 F       1  UNL1       -0.2302
     18 C         145.8477  141.5416  163.5825 C.3     1  UNL1        0.2403
     19 C         138.1318  138.5412  162.1971 C.3     1  UNL1        0.0768
     20 C         139.2752  137.6448  162.5700 C.3     1  UNL1        0.0445
     21 C         140.6791  138.0304  162.2090 C.ar    1  UNL1       -0.0102
     22 C         140.9989  138.4770  160.8132 C.ar    1  UNL1       -0.0034
     23 C         142.4028  138.8626  160.4521 C.ar    1  UNL1       -0.0003
     24 C         143.4869  138.8017  161.4869 C.ar    1  UNL1        0.0008
     25 C         143.1673  138.3550  162.8828 C.ar    1  UNL1        0.0111
     26 C         141.7634  137.9694  163.2438 C.ar    1  UNL1        0.0537
     27 CL        141.4437  137.5228  164.6396 Cl      1  UNL1       -0.0826
@<TRIPOS>BOND
     1    17    18    1
     2    18    16    1
     3    16    15    1
     4    15     9    1
     5     9    10   ar
     6    10    11   ar
     7    11    12   ar
     8    12     8    1
     9     8     7    1
    10     7     1    1
    11     1     2    1
    12     2     3    1
    13     3     4    1
    14     4    19    1
    15    19    20    1
    16    20    21    1
    17    21    22   ar
    18    22    23   ar
    19    23    24   ar
    20    24    25   ar
    21    25    26   ar
    22    26    27    1
    23     4     5    1
    24     5     6    1
    25    12    13   ar
    26    13    14   ar
    27    14     9   ar
    28     6     1    1
    29    26    21   ar
@<TRIPOS>MOLECULE
*****
 27 29 0 0 0
SMALL
GASTEIGER

@<TRIPOS>ATOM
      1 C         140.0008  137.6805  164.4049 C.3     1  UNL1        0.0031
      2 C         141.3631  137.9122  164.9885 C.3     1  UNL1        0.0174
      3 C         142.5304  138.1798  164.0852 C.3     1  UNL1        0.0721
      4 N         142.3353  138.2155  162.5983 N.3     1  UNL1       -0.2724
      5 C         140.9731  137.9838  162.0148 C.3     1  UNL1        0.0721
      6 C         139.8058  137.7162  162.9181 C.3     1  UNL1        0.0174
      7 C         138.8336  137.4129  165.3082 C.3     1  UNL1        0.0048
      8 C         138.2161  138.5355  166.0883 C.3     1  UNL1        0.0264
      9 C         139.4153  142.7895  165.2422 C.ar    1  UNL1        0.1387
     10 C         138.4169  142.1018  164.3588 C.ar    1  UNL1        0.0366
     11 C         138.0172  140.6838  164.6408 C.ar    1  UNL1       -0.0012
     12 C         138.6158  139.9535  165.8062 C.ar    1  UNL1       -0.0220
     13 C         139.6142  140.6411  166.6896 C.ar    1  UNL1       -0.0012
     14 C         140.0139  142.0591  166.4076 C.ar    1  UNL1        0.0366
     15 O         139.8150  144.2074  164.9601 O.3     1  UNL1       -0.4724
     16 C         139.5531  144.8061  163.6100 C.3     1  UNL1        0.2434
     17 F         141.9294  145.8517  163.5107 F       1  UNL1       -0.2302
     18 C         140.6846  145.3867  162.8147 C.3     1  UNL1        0.2403
     19 C         143.5026  138.4830  161.6950 C.3     1  UNL1        0.0768
     20 C         143.8875  139.8948  161.3652 C.3     1  UNL1        0.0445
     21 C         144.0257  140.9100  162.4608 C.ar    1  UNL1       -0.0102
     22 C         145.3476  141.1016  163.1433 C.ar    1  UNL1       -0.0034
     23 C         145.4858  142.1168  164.2389 C.ar    1  UNL1       -0.0003
     24 C         144.3022  142.9403  164.6521 C.ar    1  UNL1        0.0008
     25 C         142.9802  142.7486  163.9696 C.ar    1  UNL1        0.0111
     26 C         142.8420  141.7335  162.8739 C.ar    1  UNL1        0.0537
     27 CL        141.5201  141.5419  162.1914 Cl      1  UNL1       -0.0826
@<TRIPOS>BOND
     1    17    18    1
     2    18    16    1
     3    16    15    1
     4    15     9    1
     5     9    10   ar
     6    10    11   ar
     7    11    12   ar
     8    12     8    1
     9     8     7    1
    10     7     1    1
    11     1     2    1
    12     2     3    1
    13     3     4    1
    14     4    19    1
    15    19    20    1
    16    20    21    1
    17    21    22   ar
    18    22    23   ar
    19    23    24   ar
    20    24    25   ar
    21    25    26   ar
    22    26    27    1
    23     4     5    1
    24     5     6    1
    25    12    13   ar
    26    13    14   ar
    27    14     9   ar
    28     6     1    1
    29    26    21   ar
@<TRIPOS>MOLECULE
*****
 27 29 0 0 0
SMALL
GASTEIGER

@<TRIPOS>ATOM
      1 C         138.5863  139.9237  162.3709 C.3     1  UNL1        0.0031
      2 C         139.8746  140.4823  161.8431 C.3     1  UNL1        0.0174
      3 C         140.0883  141.9665  161.8043 C.3     1  UNL1        0.0721
      4 N         139.0139  142.8920  162.2932 N.3     1  UNL1       -0.2724
      5 C         137.7257  142.3334  162.8210 C.3     1  UNL1        0.0721
      6 C         137.5120  140.8492  162.8599 C.3     1  UNL1        0.0174
      7 C         138.3726  138.4395  162.4098 C.3     1  UNL1        0.0048
      8 C         138.7956  137.6521  163.6144 C.3     1  UNL1        0.0264
      9 C         140.3420  139.7811  167.2648 C.ar    1  UNL1        0.1387
     10 C         138.8717  139.5268  167.1114 C.ar    1  UNL1        0.0366
     11 C         138.3563  138.8171  165.8946 C.ar    1  UNL1       -0.0012
     12 C         139.3111  138.3618  164.8312 C.ar    1  UNL1       -0.0220
     13 C         140.7813  138.6161  164.9846 C.ar    1  UNL1       -0.0012
     14 C         141.2968  139.3258  166.2014 C.ar    1  UNL1        0.0366
     15 O         140.8575  140.4908  168.4816 O.3     1  UNL1       -0.4724
     16 C         139.8989  141.1558  169.4244 C.3     1  UNL1        0.2434
     17 F         140.1869  143.6977  168.9704 F       1  UNL1       -0.2302
     18 C         140.1797  142.5413  169.9259 C.3     1  UNL1        0.2403
     19 C         139.2276  144.3762  162.2544 C.3     1  UNL1        0.0768
     20 C         139.8980  145.0678  163.4044 C.3     1  UNL1        0.0445
     21 C         141.1952  144.5413  163.9430 C.ar    1  UNL1       -0.0102
     22 C         142.4960  145.0774  163.4229 C.ar    1  UNL1       -0.0034
     23 C         143.7932  144.5509  163.9616 C.ar    1  UNL1       -0.0003
     24 C         143.7896  143.4884  165.0202 C.ar    1  UNL1        0.0008
     25 C         142.4888  142.9522  165.5404 C.ar    1  UNL1        0.0111
     26 C         141.1916  143.4786  165.0017 C.ar    1  UNL1        0.0537
     27 CL        139.8908  142.9425  165.5218 Cl      1  UNL1       -0.0826
@<TRIPOS>BOND
     1    17    18    1
     2    18    16    1
     3    16    15    1
     4    15     9    1
     5     9    10   ar
     6    10    11   ar
     7    11    12   ar
     8    12     8    1
     9     8     7    1
    10     7     1    1
    11     1     2    1
    12     2     3    1
    13     3     4    1
    14     4    19    1
    15    19    20    1
    16    20    21    1
    17    21    22   ar
    18    22    23   ar
    19    23    24   ar
    20    24    25   ar
    21    25    26   ar
    22    26    27    1
    23     4     5    1
    24     5     6    1
    25    12    13   ar
    26    13    14   ar
    27    14     9   ar
    28     6     1    1
    29    26    21   ar
@<TRIPOS>MOLECULE
*****
 27 29 0 0 0
SMALL
GASTEIGER

@<TRIPOS>ATOM
      1 C         139.6103  137.7200  164.3601 C.3     1  UNL1        0.0031
      2 C         139.2031  137.8543  162.9227 C.3     1  UNL1        0.0174
      3 C         140.2492  137.9927  161.8566 C.3     1  UNL1        0.0721
      4 N         141.7025  137.9969  162.2281 N.3     1  UNL1       -0.2724
      5 C         142.1097  137.8626  163.6655 C.3     1  UNL1        0.0721
      6 C         141.0635  137.7242  164.7315 C.3     1  UNL1        0.0174
      7 C         138.5641  137.5816  165.4262 C.3     1  UNL1        0.0048
      8 C         138.2239  138.7525  166.2997 C.3     1  UNL1        0.0264
      9 C         139.4418  142.9063  165.0695 C.ar    1  UNL1        0.1387
     10 C         140.1628  142.2135  166.1875 C.ar    1  UNL1        0.0366
     11 C         139.7569  140.8289  166.5976 C.ar    1  UNL1       -0.0012
     12 C         138.6299  140.1371  165.8896 C.ar    1  UNL1       -0.0220
     13 C         137.9088  140.8299  164.7716 C.ar    1  UNL1       -0.0012
     14 C         138.3148  142.2145  164.3615 C.ar    1  UNL1        0.0366
     15 O         139.8477  144.2909  164.6595 O.3     1  UNL1       -0.4724
     16 C         139.5062  144.7979  163.2897 C.3     1  UNL1        0.2434
     17 F         141.8818  144.9859  162.2548 F       1  UNL1       -0.2302
     18 C         140.5220  145.5695  162.5007 C.3     1  UNL1        0.2403
     19 C         142.7487  138.1353  161.1620 C.3     1  UNL1        0.0768
     20 C         144.1040  138.6776  161.5072 C.3     1  UNL1        0.0445
     21 C         144.2845  140.1468  161.7495 C.ar    1  UNL1       -0.0102
     22 C         143.9426  141.1323  160.6716 C.ar    1  UNL1       -0.0034
     23 C         144.1231  142.6016  160.9139 C.ar    1  UNL1       -0.0003
     24 C         144.6454  143.0854  162.2342 C.ar    1  UNL1        0.0008
     25 C         144.9874  142.0999  163.3122 C.ar    1  UNL1        0.0111
     26 C         144.8069  140.6306  163.0698 C.ar    1  UNL1        0.0537
     27 CL        145.1488  139.6451  164.1477 Cl      1  UNL1       -0.0826
@<TRIPOS>BOND
     1    17    18    1
     2    18    16    1
     3    16    15    1
     4    15     9    1
     5     9    10   ar
     6    10    11   ar
     7    11    12   ar
     8    12     8    1
     9     8     7    1
    10     7     1    1
    11     1     2    1
    12     2     3    1
    13     3     4    1
    14     4    19    1
    15    19    20    1
    16    20    21    1
    17    21    22   ar
    18    22    23   ar
    19    23    24   ar
    20    24    25   ar
    21    25    26   ar
    22    26    27    1
    23     4     5    1
    24     5     6    1
    25    12    13   ar
    26    13    14   ar
    27    14     9   ar
    28     6     1    1
    29    26    21   ar
