@<TRIPOS>MOLECULE
*****
 42 48 0 0 0
SMALL
GASTEIGER

@<TRIPOS>ATOM
      1 C         141.8164  140.2743  166.2916 C.3     1  UNL1        0.1335
      2 C         142.4283  141.6427  166.2361 C.3     1  UNL1        0.0324
      3 C         143.6754  141.8748  165.4356 C.3     1  UNL1        0.0195
      4 C         144.3106  140.7383  164.6905 C.3     1  UNL1        0.0700
      5 C         143.6987  139.3700  164.7460 C.3     1  UNL1        0.0195
      6 C         142.4516  139.1379  165.5466 C.3     1  UNL1        0.0324
      7 C         143.6277  140.5626  165.1158 C.3     1  UNL1        0.1563
      8 O         142.5001  140.3528  165.8396 O.3     1  UNL1       -0.3535
      9 C         139.2349  139.6292  166.5457 C.3     1  UNL1        0.2404
     10 O         138.2785  139.5143  167.6955 O.3     1  UNL1       -0.4132
     11 C         139.0219  139.8564  168.9527 C.2     1  UNL1        0.5122
     12 O         138.4499  139.8697  170.3393 O.2     1  UNL1       -0.2028
     13 O         140.4377  140.1827  168.5798 O.3     1  UNL1       -0.4152
     14 C         140.5693  140.0423  167.0922 C.3     1  UNL1        0.2408
     15 C         138.0401  143.0463  163.8725 C.ar    1  UNL1        0.2250
     16 C         137.7184  142.7926  162.4296 C.ar    1  UNL1        0.0593
     17 C         137.7951  141.4000  161.8776 C.ar    1  UNL1        0.0254
     18 C         138.1933  140.2610  162.7687 C.ar    1  UNL1        0.0991
     19 N         138.2699  138.8683  162.2167 N.ar    1  UNL1       -0.2400
     20 C         138.6682  137.7293  163.1078 C.ar    1  UNL1        0.1282
     21 C         138.9898  137.9829  164.5508 C.ar    1  UNL1        0.1601
     22 F         139.3881  136.8439  165.4418 F       1  UNL1       -0.2027
     23 C         138.9132  139.3756  165.1027 C.ar    1  UNL1        0.0693
     24 C         138.5149  140.5146  164.2116 C.ar    1  UNL1        0.1037
     25 N         138.4383  141.9073  164.7635 N.ar    1  UNL1       -0.2103
     26 C         138.8412  144.8400  165.5727 C.3     1  UNL1        0.2542
     27 O         137.9634  144.4390  164.4244 O.3     1  UNL1       -0.4561
     28 N         145.5578  140.9704  163.8899 N.3     1  UNL1       -0.2926
     29 H         145.7742  140.0911  163.4205 H       1  UNL1        0.1236
     30 C         145.5862  142.0406  162.8393 C.3     1  UNL1        0.1152
     31 C         144.3602  142.3223  162.0224 C.ar    1  UNL1        0.0765
     32 C         143.9259  141.3533  160.9629 C.ar    1  UNL1        0.0193
     33 C         142.6998  141.6350  160.1459 C.ar    1  UNL1        0.0411
     34 C         141.9081  142.8857  160.3884 C.ar    1  UNL1        0.1708
     35 C         142.3423  143.8547  161.4478 C.ar    1  UNL1        0.1682
     36 N         143.5684  143.5730  162.2649 N.ar    1  UNL1       -0.2304
     37 N         141.5506  145.1054  161.6903 N.am    1  UNL1       -0.2639
     38 C         140.3245  145.3871  160.8734 C.2     1  UNL1        0.2718
     39 O         139.5328  146.6378  161.1159 O.2     1  UNL1       -0.2707
     40 C         139.8902  144.4181  159.8139 C.3     1  UNL1        0.2898
     41 O         140.6820  143.1674  159.5714 O.3     1  UNL1       -0.4628
     42 H         141.8356  145.7414  162.3857 H       1  UNL1        0.1565
@<TRIPOS>BOND
     1    26    27    1
     2    27    15    1
     3    15    16   ar
     4    16    17   ar
     5    17    18   ar
     6    18    19   ar
     7    19    20   ar
     8    20    21   ar
     9    21    22    1
    10    21    23   ar
    11     9    23    1
    12     9    10    1
    13    10    11    1
    14    11    12    2
    15    11    13    1
    16    14    13    1
    17    14     1    1
    18     1     2    1
    19     2     3    1
    20     3     4    1
    21     4    28    1
    22    28    30    1
    23    30    31    1
    24    31    32   ar
    25    32    33   ar
    26    33    34   ar
    27    34    35   ar
    28    35    36   ar
    29    35    37    1
    30    37    38   am
    31    38    39    2
    32    38    40    1
    33    40    41    1
    34     4     5    1
    35     5     6    1
    36     4     7    1
    37     7     8    1
    38    23    24   ar
    39    24    25   ar
    40    25    15   ar
    41    24    18   ar
    42    14     9    1
    43     6     1    1
    44     8     1    1
    45    36    31   ar
    46    41    34    1
    47    28    29    1
    48    37    42    1
@<TRIPOS>MOLECULE
*****
 42 48 0 0 0
SMALL
GASTEIGER

@<TRIPOS>ATOM
      1 C         138.2492  141.2282  164.2150 C.3     1  UNL1        0.1335
      2 C         138.8527  142.3701  164.9778 C.3     1  UNL1        0.0324
      3 C         138.8655  143.7465  164.3818 C.3     1  UNL1        0.0195
      4 C         138.2749  143.9810  163.0230 C.3     1  UNL1        0.0700
      5 C         137.6715  142.8391  162.2603 C.3     1  UNL1        0.0195
      6 C         137.6587  141.4626  162.8563 C.3     1  UNL1        0.0324
      7 C         138.2447  143.2092  163.3084 C.3     1  UNL1        0.1563
      8 O         138.2331  141.9647  163.8473 O.3     1  UNL1       -0.3535
      9 C         138.8310  138.6193  164.1966 C.3     1  UNL1        0.2404
     10 O         138.5888  137.4719  165.1319 O.3     1  UNL1       -0.4132
     11 C         137.8445  137.9952  166.3244 C.2     1  UNL1        0.5122
     12 O         137.3966  137.1893  167.5076 O.2     1  UNL1       -0.2028
     13 O         137.6267  139.4661  166.1261 O.3     1  UNL1       -0.4152
     14 C         138.2364  139.8517  164.8110 C.3     1  UNL1        0.2408
     15 C         143.3214  138.8725  164.0473 C.ar    1  UNL1        0.2250
     16 C         144.0332  138.8001  162.7289 C.ar    1  UNL1        0.0593
     17 C         143.2483  138.6433  161.4604 C.ar    1  UNL1        0.0254
     18 C         141.7515  138.5589  161.5101 C.ar    1  UNL1        0.0991
     19 N         140.9666  138.4021  160.2415 N.ar    1  UNL1       -0.2400
     20 C         139.4698  138.3177  160.2913 C.ar    1  UNL1        0.1282
     21 C         138.7579  138.3901  161.6097 C.ar    1  UNL1        0.1601
     22 F         137.2611  138.3057  161.6594 F       1  UNL1       -0.2027
     23 C         139.5428  138.5469  162.8782 C.ar    1  UNL1        0.0693
     24 C         141.0397  138.6313  162.8284 C.ar    1  UNL1        0.1037
     25 N         141.8246  138.7881  164.0970 N.ar    1  UNL1       -0.2103
     26 C         143.8316  138.1292  166.4839 C.3     1  UNL1        0.2542
     27 O         144.1063  139.0292  165.3158 O.3     1  UNL1       -0.4561
     28 N         138.2878  145.3576  162.4270 N.3     1  UNL1       -0.2926
     29 H         137.8645  145.9803  163.1151 H       1  UNL1        0.1236
     30 C         139.5870  145.9849  162.0165 C.3     1  UNL1        0.1152
     31 C         140.6824  145.1350  161.4441 C.ar    1  UNL1        0.0765
     32 C         140.7198  144.8513  159.9716 C.ar    1  UNL1        0.0193
     33 C         141.8153  144.0014  159.3992 C.ar    1  UNL1        0.0411
     34 C         142.8733  143.4352  160.2992 C.ar    1  UNL1        0.1708
     35 C         142.8359  143.7189  161.7716 C.ar    1  UNL1        0.1682
     36 N         141.7404  144.5688  162.3441 N.ar    1  UNL1       -0.2304
     37 N         143.8939  143.1527  162.6716 N.am    1  UNL1       -0.2639
     38 C         144.9893  142.3028  162.0991 C.2     1  UNL1        0.2718
     39 O         146.0473  141.7367  162.9992 O.2     1  UNL1       -0.2707
     40 C         145.0267  142.0191  160.6267 C.3     1  UNL1        0.2898
     41 O         143.9687  142.5853  159.7267 O.3     1  UNL1       -0.4628
     42 H         143.8693  143.3389  163.6380 H       1  UNL1        0.1565
@<TRIPOS>BOND
     1    26    27    1
     2    27    15    1
     3    15    16   ar
     4    16    17   ar
     5    17    18   ar
     6    18    19   ar
     7    19    20   ar
     8    20    21   ar
     9    21    22    1
    10    21    23   ar
    11     9    23    1
    12     9    10    1
    13    10    11    1
    14    11    12    2
    15    11    13    1
    16    14    13    1
    17    14     1    1
    18     1     2    1
    19     2     3    1
    20     3     4    1
    21     4    28    1
    22    28    30    1
    23    30    31    1
    24    31    32   ar
    25    32    33   ar
    26    33    34   ar
    27    34    35   ar
    28    35    36   ar
    29    35    37    1
    30    37    38   am
    31    38    39    2
    32    38    40    1
    33    40    41    1
    34     4     5    1
    35     5     6    1
    36     4     7    1
    37     7     8    1
    38    23    24   ar
    39    24    25   ar
    40    25    15   ar
    41    24    18   ar
    42    14     9    1
    43     6     1    1
    44     8     1    1
    45    36    31   ar
    46    41    34    1
    47    28    29    1
    48    37    42    1
@<TRIPOS>MOLECULE
*****
 42 48 0 0 0
SMALL
GASTEIGER

@<TRIPOS>ATOM
      1 C         139.9018  141.9770  166.3677 C.3     1  UNL1        0.1335
      2 C         139.5677  143.0692  165.3953 C.3     1  UNL1        0.0324
      3 C         138.5561  142.8276  164.3145 C.3     1  UNL1        0.0195
      4 C         137.8785  141.4936  164.2061 C.3     1  UNL1        0.0700
      5 C         138.2126  140.4015  165.1784 C.3     1  UNL1        0.0195
      6 C         139.2242  140.6432  166.2593 C.3     1  UNL1        0.0324
      7 C         138.4261  141.5790  164.8151 C.3     1  UNL1        0.1563
      8 O         139.3408  141.7975  165.7923 O.3     1  UNL1       -0.3535
      9 C         142.3116  141.6767  167.4847 C.3     1  UNL1        0.2404
     10 O         142.9668  142.1679  168.7414 O.3     1  UNL1       -0.4132
     11 C         141.9735  143.0134  169.4820 C.2     1  UNL1        0.5122
     12 O         142.2081  143.7060  170.7917 O.2     1  UNL1       -0.2028
     13 O         140.7044  143.0449  168.6829 O.3     1  UNL1       -0.4152
     14 C         140.9134  142.2187  167.4485 C.3     1  UNL1        0.2408
     15 C         143.5410  143.4081  163.5172 C.ar    1  UNL1        0.2250
     16 C         144.1731  142.5293  162.4789 C.ar    1  UNL1        0.0593
     17 C         144.3953  141.0733  162.7631 C.ar    1  UNL1        0.0254
     18 C         143.9855  140.4962  164.0855 C.ar    1  UNL1        0.0991
     19 N         144.2078  139.0402  164.3697 N.ar    1  UNL1       -0.2400
     20 C         143.7980  138.4631  165.6922 C.ar    1  UNL1        0.1282
     21 C         143.1659  139.3419  166.7305 C.ar    1  UNL1        0.1601
     22 F         142.7561  138.7648  168.0530 F       1  UNL1       -0.2027
     23 C         142.9436  140.7979  166.4464 C.ar    1  UNL1        0.0693
     24 C         143.3535  141.3750  165.1238 C.ar    1  UNL1        0.1037
     25 N         143.1312  142.8310  164.8397 N.ar    1  UNL1       -0.2103
     26 C         141.9722  145.4787  163.4761 C.3     1  UNL1        0.2542
     27 O         143.3188  144.8641  163.2330 O.3     1  UNL1       -0.4561
     28 N         136.8668  141.2520  163.1252 N.3     1  UNL1       -0.2926
     29 H         136.3857  142.1377  162.9688 H       1  UNL1        0.1236
     30 C         137.3099  140.7566  161.7805 C.3     1  UNL1        0.1152
     31 C         138.5699  139.9523  161.6554 C.ar    1  UNL1        0.0765
     32 C         138.7058  138.6520  162.3907 C.ar    1  UNL1        0.0193
     33 C         139.9657  137.8477  162.2656 C.ar    1  UNL1        0.0411
     34 C         141.0898  138.3438  161.4051 C.ar    1  UNL1        0.1708
     35 C         140.9539  139.6440  160.6698 C.ar    1  UNL1        0.1682
     36 N         139.6939  140.4484  160.7949 N.ar    1  UNL1       -0.2304
     37 N         142.0780  140.1401  159.8094 N.am    1  UNL1       -0.2639
     38 C         143.3379  139.3359  159.6843 C.2     1  UNL1        0.2718
     39 O         144.4620  139.8319  158.8238 O.2     1  UNL1       -0.2707
     40 C         143.4738  138.0355  160.4196 C.3     1  UNL1        0.2898
     41 O         142.3498  137.5395  161.2800 O.3     1  UNL1       -0.4628
     42 H         141.9888  140.9936  159.3268 H       1  UNL1        0.1565
@<TRIPOS>BOND
     1    26    27    1
     2    27    15    1
     3    15    16   ar
     4    16    17   ar
     5    17    18   ar
     6    18    19   ar
     7    19    20   ar
     8    20    21   ar
     9    21    22    1
    10    21    23   ar
    11     9    23    1
    12     9    10    1
    13    10    11    1
    14    11    12    2
    15    11    13    1
    16    14    13    1
    17    14     1    1
    18     1     2    1
    19     2     3    1
    20     3     4    1
    21     4    28    1
    22    28    30    1
    23    30    31    1
    24    31    32   ar
    25    32    33   ar
    26    33    34   ar
    27    34    35   ar
    28    35    36   ar
    29    35    37    1
    30    37    38   am
    31    38    39    2
    32    38    40    1
    33    40    41    1
    34     4     5    1
    35     5     6    1
    36     4     7    1
    37     7     8    1
    38    23    24   ar
    39    24    25   ar
    40    25    15   ar
    41    24    18   ar
    42    14     9    1
    43     6     1    1
    44     8     1    1
    45    36    31   ar
    46    41    34    1
    47    28    29    1
    48    37    42    1
@<TRIPOS>MOLECULE
*****
 42 48 0 0 0
SMALL
GASTEIGER

@<TRIPOS>ATOM
      1 C         141.8284  140.6528  166.2805 C.3     1  UNL1        0.1335
      2 C         141.9868  142.0782  165.8411 C.3     1  UNL1        0.0324
      3 C         143.1325  142.4669  164.9545 C.3     1  UNL1        0.0195
      4 C         144.1199  141.4300  164.5072 C.3     1  UNL1        0.0700
      5 C         143.9616  140.0046  164.9465 C.3     1  UNL1        0.0195
      6 C         142.8157  139.6159  165.8332 C.3     1  UNL1        0.0324
      7 C         143.5082  141.1693  164.9929 C.3     1  UNL1        0.1563
      8 O         142.4722  140.8179  165.7945 O.3     1  UNL1       -0.3535
      9 C         139.3708  139.6950  166.7141 C.3     1  UNL1        0.2404
     10 O         138.5249  139.4556  167.9294 O.3     1  UNL1       -0.4132
     11 C         139.3139  139.8768  169.1336 C.2     1  UNL1        0.5122
     12 O         138.8507  139.8100  170.5588 O.2     1  UNL1       -0.2028
     13 O         140.6474  140.3765  168.6625 O.3     1  UNL1       -0.4152
     14 C         140.6826  140.2642  167.1671 C.3     1  UNL1        0.2408
     15 C         137.9452  143.0469  164.0717 C.ar    1  UNL1        0.2250
     16 C         137.5489  142.7664  162.6525 C.ar    1  UNL1        0.0593
     17 C         137.6277  141.3685  162.1140 C.ar    1  UNL1        0.0254
     18 C         138.1029  140.2513  162.9948 C.ar    1  UNL1        0.0991
     19 N         138.1818  138.8534  162.4564 N.ar    1  UNL1       -0.2400
     20 C         138.6570  137.7362  163.3372 C.ar    1  UNL1        0.1282
     21 C         139.0533  138.0166  164.7564 C.ar    1  UNL1        0.1601
     22 F         139.5285  136.8994  165.6372 F       1  UNL1       -0.2027
     23 C         138.9744  139.4145  165.2949 C.ar    1  UNL1        0.0693
     24 C         138.4992  140.5318  164.4140 C.ar    1  UNL1        0.1037
     25 N         138.4204  141.9296  164.9524 N.ar    1  UNL1       -0.2103
     26 C         138.8493  144.9064  165.6447 C.3     1  UNL1        0.2542
     27 O         137.8663  144.4447  164.6101 O.3     1  UNL1       -0.4561
     28 N         145.2657  141.8187  163.6205 N.3     1  UNL1       -0.2926
     29 H         146.0071  141.1369  163.7816 H       1  UNL1        0.1236
     30 C         145.0700  141.9028  162.1357 C.3     1  UNL1        0.1152
     31 C         144.0510  141.0315  161.4630 C.ar    1  UNL1        0.0765
     32 C         144.3088  139.5625  161.3028 C.ar    1  UNL1        0.0193
     33 C         143.2899  138.6912  160.6301 C.ar    1  UNL1        0.0411
     34 C         142.0131  139.2889  160.1176 C.ar    1  UNL1        0.1708
     35 C         141.7553  140.7578  160.2778 C.ar    1  UNL1        0.1682
     36 N         142.7743  141.6292  160.9505 N.ar    1  UNL1       -0.2304
     37 N         140.4785  141.3555  159.7653 N.am    1  UNL1       -0.2639
     38 C         139.4596  140.4841  159.0926 C.2     1  UNL1        0.2718
     39 O         138.1828  141.0818  158.5801 O.2     1  UNL1       -0.2707
     40 C         139.7174  139.0152  158.9324 C.3     1  UNL1        0.2898
     41 O         140.9941  138.4175  159.4449 O.3     1  UNL1       -0.4628
     42 H         140.3093  142.3196  159.8705 H       1  UNL1        0.1565
@<TRIPOS>BOND
     1    26    27    1
     2    27    15    1
     3    15    16   ar
     4    16    17   ar
     5    17    18   ar
     6    18    19   ar
     7    19    20   ar
     8    20    21   ar
     9    21    22    1
    10    21    23   ar
    11     9    23    1
    12     9    10    1
    13    10    11    1
    14    11    12    2
    15    11    13    1
    16    14    13    1
    17    14     1    1
    18     1     2    1
    19     2     3    1
    20     3     4    1
    21     4    28    1
    22    28    30    1
    23    30    31    1
    24    31    32   ar
    25    32    33   ar
    26    33    34   ar
    27    34    35   ar
    28    35    36   ar
    29    35    37    1
    30    37    38   am
    31    38    39    2
    32    38    40    1
    33    40    41    1
    34     4     5    1
    35     5     6    1
    36     4     7    1
    37     7     8    1
    38    23    24   ar
    39    24    25   ar
    40    25    15   ar
    41    24    18   ar
    42    14     9    1
    43     6     1    1
    44     8     1    1
    45    36    31   ar
    46    41    34    1
    47    28    29    1
    48    37    42    1
@<TRIPOS>MOLECULE
*****
 42 48 0 0 0
SMALL
GASTEIGER

@<TRIPOS>ATOM
      1 C         142.1129  142.6419  165.7828 C.3     1  UNL1        0.1335
      2 C         143.1708  143.2392  164.9029 C.3     1  UNL1        0.0324
      3 C         142.8072  144.3014  163.9083 C.3     1  UNL1        0.0195
      4 C         141.3856  144.7664  163.7935 C.3     1  UNL1        0.0700
      5 C         140.3278  144.1691  164.6733 C.3     1  UNL1        0.0195
      6 C         140.6914  143.1068  165.6680 C.3     1  UNL1        0.0324
      7 C         141.5368  144.1818  164.3533 C.3     1  UNL1        0.1563
      8 O         141.8655  143.2213  165.2527 O.3     1  UNL1       -0.3535
      9 C         142.7522  140.1382  166.4669 C.3     1  UNL1        0.2404
     10 O         143.0744  139.4400  167.7547 O.3     1  UNL1       -0.4132
     11 C         142.9979  140.4498  168.8612 C.2     1  UNL1        0.5122
     12 O         143.2471  140.1840  170.3163 O.2     1  UNL1       -0.2028
     13 O         142.6284  141.7722  168.2572 O.3     1  UNL1       -0.4152
     14 C         142.4766  141.5796  166.7774 C.3     1  UNL1        0.2408
     15 C         138.9375  138.2916  164.9543 C.ar    1  UNL1        0.2250
     16 C         138.8979  137.6595  163.5947 C.ar    1  UNL1        0.0593
     17 C         140.1299  137.6428  162.7391 C.ar    1  UNL1        0.0254
     18 C         141.4015  138.2583  163.2433 C.ar    1  UNL1        0.0991
     19 N         142.6335  138.2416  162.3878 N.ar    1  UNL1       -0.2400
     20 C         143.9050  138.8571  162.8920 C.ar    1  UNL1        0.1282
     21 C         143.9447  139.4893  164.2517 C.ar    1  UNL1        0.1601
     22 F         145.2162  140.1048  164.7559 F       1  UNL1       -0.2027
     23 C         142.7127  139.5060  165.1072 C.ar    1  UNL1        0.0693
     24 C         141.4410  138.8905  164.6030 C.ar    1  UNL1        0.1037
     25 N         140.2090  138.9071  165.4585 N.ar    1  UNL1       -0.2103
     26 C         137.7909  138.7552  167.2391 C.3     1  UNL1        0.2542
     27 O         137.7055  138.3083  165.8098 O.3     1  UNL1       -0.4561
     28 N         141.0220  145.8287  162.7988 N.3     1  UNL1       -0.2926
     29 H         141.8848  146.3192  162.5632 H       1  UNL1        0.1236
     30 C         140.3710  145.4502  161.5016 C.3     1  UNL1        0.1152
     31 C         140.3077  144.0102  161.0864 C.ar    1  UNL1        0.0765
     32 C         139.0402  143.2304  161.2745 C.ar    1  UNL1        0.0193
     33 C         138.9768  141.7904  160.8593 C.ar    1  UNL1        0.0411
     34 C         140.1810  141.1302  160.2560 C.ar    1  UNL1        0.1708
     35 C         141.4485  141.9100  160.0678 C.ar    1  UNL1        0.1682
     36 N         141.5119  143.3500  160.4830 N.ar    1  UNL1       -0.2304
     37 N         142.6526  141.2497  159.4645 N.am    1  UNL1       -0.2639
     38 C         142.5893  139.8098  159.0492 C.2     1  UNL1        0.2718
     39 O         143.7935  139.1496  158.4459 O.2     1  UNL1       -0.2707
     40 C         141.3218  139.0300  159.2374 C.3     1  UNL1        0.2898
     41 O         140.1176  139.6902  159.8407 O.3     1  UNL1       -0.4628
     42 H         143.4845  141.7615  159.3410 H       1  UNL1        0.1565
@<TRIPOS>BOND
     1    26    27    1
     2    27    15    1
     3    15    16   ar
     4    16    17   ar
     5    17    18   ar
     6    18    19   ar
     7    19    20   ar
     8    20    21   ar
     9    21    22    1
    10    21    23   ar
    11     9    23    1
    12     9    10    1
    13    10    11    1
    14    11    12    2
    15    11    13    1
    16    14    13    1
    17    14     1    1
    18     1     2    1
    19     2     3    1
    20     3     4    1
    21     4    28    1
    22    28    30    1
    23    30    31    1
    24    31    32   ar
    25    32    33   ar
    26    33    34   ar
    27    34    35   ar
    28    35    36   ar
    29    35    37    1
    30    37    38   am
    31    38    39    2
    32    38    40    1
    33    40    41    1
    34     4     5    1
    35     5     6    1
    36     4     7    1
    37     7     8    1
    38    23    24   ar
    39    24    25   ar
    40    25    15   ar
    41    24    18   ar
    42    14     9    1
    43     6     1    1
    44     8     1    1
    45    36    31   ar
    46    41    34    1
    47    28    29    1
    48    37    42    1
@<TRIPOS>MOLECULE
*****
 42 48 0 0 0
SMALL
GASTEIGER

@<TRIPOS>ATOM
      1 C         142.7787  143.8756  160.6206 C.3     1  UNL1        0.1335
      2 C         143.4986  142.6724  160.0876 C.3     1  UNL1        0.0324
      3 C         144.5374  141.9878  160.9254 C.3     1  UNL1        0.0195
      4 C         144.8563  142.5063  162.2964 C.3     1  UNL1        0.0700
      5 C         144.1364  143.7093  162.8295 C.3     1  UNL1        0.0195
      6 C         143.0975  144.3941  161.9916 C.3     1  UNL1        0.0324
      7 C         144.2793  142.9148  161.8743 C.3     1  UNL1        0.1563
      8 O         143.3400  143.5339  161.1167 O.3     1  UNL1       -0.3535
      9 C         140.2815  144.6824  160.1121 C.3     1  UNL1        0.2404
     10 O         139.6174  145.4406  159.0013 O.3     1  UNL1       -0.4132
     11 C         140.6651  145.7870  157.9853 C.2     1  UNL1        0.5122
     12 O         140.4406  146.5445  156.7102 O.2     1  UNL1       -0.2028
     13 O         141.9769  145.2428  158.4683 O.3     1  UNL1       -0.4152
     14 C         141.7398  144.5602  159.7827 C.3     1  UNL1        0.2408
     15 C         138.2634  140.6626  159.9791 C.ar    1  UNL1        0.2250
     16 C         137.5879  140.1216  161.2042 C.ar    1  UNL1        0.0593
     17 C         137.5851  140.9205  162.4737 C.ar    1  UNL1        0.0254
     18 C         138.2578  142.2605  162.5181 C.ar    1  UNL1        0.0991
     19 N         138.2550  143.0594  163.7876 N.ar    1  UNL1       -0.2400
     20 C         138.9277  144.3994  163.8320 C.ar    1  UNL1        0.1282
     21 C         139.6033  144.9404  162.6068 C.ar    1  UNL1        0.1601
     22 F         140.2760  146.2803  162.6511 F       1  UNL1       -0.2027
     23 C         139.6061  144.1414  161.3373 C.ar    1  UNL1        0.0693
     24 C         138.9333  142.8014  161.2929 C.ar    1  UNL1        0.1037
     25 N         138.9361  142.0025  160.0234 N.ar    1  UNL1       -0.2103
     26 C         139.4845  139.0807  158.3188 C.3     1  UNL1        0.2542
     27 O         138.2662  139.8636  158.7095 O.3     1  UNL1       -0.4561
     28 N         145.8952  141.8216  163.1343 N.3     1  UNL1       -0.2926
     29 H         146.3621  142.5484  163.6766 H       1  UNL1        0.1236
     30 C         145.4905  140.7508  164.1036 C.3     1  UNL1        0.1152
     31 C         144.2388  139.9588  163.8667 C.ar    1  UNL1        0.0765
     32 C         144.2082  138.9061  162.7985 C.ar    1  UNL1        0.0193
     33 C         142.9565  138.1142  162.5616 C.ar    1  UNL1        0.0411
     34 C         141.7355  138.3749  163.3929 C.ar    1  UNL1        0.1708
     35 C         141.7660  139.4275  164.4610 C.ar    1  UNL1        0.1682
     36 N         143.0177  140.2195  164.6979 N.ar    1  UNL1       -0.2304
     37 N         140.5450  139.6882  165.2922 N.am    1  UNL1       -0.2639
     38 C         139.2933  138.8963  165.0553 C.2     1  UNL1        0.2718
     39 O         138.0722  139.1570  165.8865 O.2     1  UNL1       -0.2707
     40 C         139.2627  137.8436  163.9871 C.3     1  UNL1        0.2898
     41 O         140.4838  137.5829  163.1559 O.3     1  UNL1       -0.4628
     42 H         140.5650  140.3791  165.9933 H       1  UNL1        0.1565
@<TRIPOS>BOND
     1    26    27    1
     2    27    15    1
     3    15    16   ar
     4    16    17   ar
     5    17    18   ar
     6    18    19   ar
     7    19    20   ar
     8    20    21   ar
     9    21    22    1
    10    21    23   ar
    11     9    23    1
    12     9    10    1
    13    10    11    1
    14    11    12    2
    15    11    13    1
    16    14    13    1
    17    14     1    1
    18     1     2    1
    19     2     3    1
    20     3     4    1
    21     4    28    1
    22    28    30    1
    23    30    31    1
    24    31    32   ar
    25    32    33   ar
    26    33    34   ar
    27    34    35   ar
    28    35    36   ar
    29    35    37    1
    30    37    38   am
    31    38    39    2
    32    38    40    1
    33    40    41    1
    34     4     5    1
    35     5     6    1
    36     4     7    1
    37     7     8    1
    38    23    24   ar
    39    24    25   ar
    40    25    15   ar
    41    24    18   ar
    42    14     9    1
    43     6     1    1
    44     8     1    1
    45    36    31   ar
    46    41    34    1
    47    28    29    1
    48    37    42    1
@<TRIPOS>MOLECULE
*****
 42 48 0 0 0
SMALL
GASTEIGER

@<TRIPOS>ATOM
      1 C         139.2400  139.5215  165.5421 C.3     1  UNL1        0.1335
      2 C         138.3811  140.5921  164.9369 C.3     1  UNL1        0.0324
      3 C         137.7762  140.3902  163.5793 C.3     1  UNL1        0.0195
      4 C         138.0303  139.1177  162.8267 C.3     1  UNL1        0.0700
      5 C         138.8892  138.0472  163.4318 C.3     1  UNL1        0.0195
      6 C         139.4941  138.2491  164.7895 C.3     1  UNL1        0.0324
      7 C         138.3833  139.1829  163.5677 C.3     1  UNL1        0.1563
      8 O         138.9302  139.3654  164.7953 O.3     1  UNL1       -0.3535
      9 C         141.2835  140.0368  167.1864 C.3     1  UNL1        0.2404
     10 O         141.4450  140.1544  168.6730 O.3     1  UNL1       -0.4132
     11 C         140.1062  139.9137  169.3052 C.2     1  UNL1        0.5122
     12 O         139.8086  139.9356  170.7752 O.2     1  UNL1       -0.2028
     13 O         139.1172  139.6473  168.2093 O.3     1  UNL1       -0.4152
     14 C         139.8448  139.7234  166.8998 C.3     1  UNL1        0.2408
     15 C         141.3474  143.6775  164.5423 C.ar    1  UNL1        0.2250
     16 C         142.4338  143.8441  163.5215 C.ar    1  UNL1        0.0593
     17 C         143.4988  142.7971  163.3821 C.ar    1  UNL1        0.0254
     18 C         143.4775  141.5835  164.2634 C.ar    1  UNL1        0.0991
     19 N         144.5426  140.5365  164.1240 N.ar    1  UNL1       -0.2400
     20 C         144.5213  139.3230  165.0053 C.ar    1  UNL1        0.1282
     21 C         143.4349  139.1564  166.0262 C.ar    1  UNL1        0.1601
     22 F         143.4136  137.9428  166.9075 F       1  UNL1       -0.2027
     23 C         142.3698  140.2034  166.1656 C.ar    1  UNL1        0.0693
     24 C         142.3912  141.4170  165.2842 C.ar    1  UNL1        0.1037
     25 N         141.3261  142.4640  165.4237 N.ar    1  UNL1       -0.2103
     26 C         138.8818  144.3263  165.0420 C.3     1  UNL1        0.2542
     27 O         140.2824  144.7245  164.6818 O.3     1  UNL1       -0.4561
     28 N         137.4254  138.9159  161.4689 N.3     1  UNL1       -0.2926
     29 H         136.6124  139.5295  161.4145 H       1  UNL1        0.1236
     30 C         138.2437  139.1711  160.2379 C.3     1  UNL1        0.1152
     31 C         139.1489  140.3654  160.1734 C.ar    1  UNL1        0.0765
     32 C         140.5568  140.2135  159.6786 C.ar    1  UNL1        0.0193
     33 C         141.4621  141.4078  159.6140 C.ar    1  UNL1        0.0411
     34 C         140.9595  142.7539  160.0444 C.ar    1  UNL1        0.1708
     35 C         139.5517  142.9059  160.5392 C.ar    1  UNL1        0.1682
     36 N         138.6463  141.7116  160.6037 N.ar    1  UNL1       -0.2304
     37 N         139.0491  144.2520  160.9695 N.am    1  UNL1       -0.2639
     38 C         139.9544  145.4463  160.9050 C.2     1  UNL1        0.2718
     39 O         139.4518  146.7925  161.3353 O.2     1  UNL1       -0.2707
     40 C         141.3622  145.2944  160.4101 C.3     1  UNL1        0.2898
     41 O         141.8648  143.9482  159.9798 O.3     1  UNL1       -0.4628
     42 H         138.1251  144.3517  161.2943 H       1  UNL1        0.1565
@<TRIPOS>BOND
     1    26    27    1
     2    27    15    1
     3    15    16   ar
     4    16    17   ar
     5    17    18   ar
     6    18    19   ar
     7    19    20   ar
     8    20    21   ar
     9    21    22    1
    10    21    23   ar
    11     9    23    1
    12     9    10    1
    13    10    11    1
    14    11    12    2
    15    11    13    1
    16    14    13    1
    17    14     1    1
    18     1     2    1
    19     2     3    1
    20     3     4    1
    21     4    28    1
    22    28    30    1
    23    30    31    1
    24    31    32   ar
    25    32    33   ar
    26    33    34   ar
    27    34    35   ar
    28    35    36   ar
    29    35    37    1
    30    37    38   am
    31    38    39    2
    32    38    40    1
    33    40    41    1
    34     4     5    1
    35     5     6    1
    36     4     7    1
    37     7     8    1
    38    23    24   ar
    39    24    25   ar
    40    25    15   ar
    41    24    18   ar
    42    14     9    1
    43     6     1    1
    44     8     1    1
    45    36    31   ar
    46    41    34    1
    47    28    29    1
    48    37    42    1
@<TRIPOS>MOLECULE
*****
 42 48 0 0 0
SMALL
GASTEIGER

@<TRIPOS>ATOM
      1 C         140.7773  143.0592  165.6698 C.3     1  UNL1        0.1335
      2 C         141.9906  143.4498  164.8790 C.3     1  UNL1        0.0324
      3 C         141.8799  144.4818  163.7962 C.3     1  UNL1        0.0195
      4 C         140.5558  145.1234  163.5042 C.3     1  UNL1        0.0700
      5 C         139.3425  144.7329  164.2950 C.3     1  UNL1        0.0195
      6 C         139.4533  143.7007  165.3778 C.3     1  UNL1        0.0324
      7 C         140.5672  144.5627  164.1072 C.3     1  UNL1        0.1563
      8 O         140.6674  143.6295  165.0862 O.3     1  UNL1       -0.3535
      9 C         140.7049  140.5480  166.5829 C.3     1  UNL1        0.2404
     10 O         140.9051  139.8996  167.9206 O.3     1  UNL1       -0.4132
     11 C         141.2120  140.9780  168.9171 C.2     1  UNL1        0.5122
     12 O         141.4820  140.7769  170.3788 O.2     1  UNL1       -0.2028
     13 O         141.2015  142.2929  168.1952 O.3     1  UNL1       -0.4152
     14 C         140.8881  142.0271  166.7526 C.3     1  UNL1        0.2408
     15 C         143.9640  139.6674  163.6075 C.ar    1  UNL1        0.2250
     16 C         143.6379  138.9607  162.3252 C.ar    1  UNL1        0.0593
     17 C         142.2254  138.5476  162.0347 C.ar    1  UNL1        0.0254
     18 C         141.1391  138.8411  163.0265 C.ar    1  UNL1        0.0991
     19 N         139.7267  138.4280  162.7360 N.ar    1  UNL1       -0.2400
     20 C         138.6403  138.7215  163.7278 C.ar    1  UNL1        0.1282
     21 C         138.9664  139.4282  165.0101 C.ar    1  UNL1        0.1601
     22 F         137.8801  139.7217  166.0019 F       1  UNL1       -0.2027
     23 C         140.3788  139.8413  165.3006 C.ar    1  UNL1        0.0693
     24 C         141.4652  139.5478  164.3088 C.ar    1  UNL1        0.1037
     25 N         142.8776  139.9609  164.5993 N.ar    1  UNL1       -0.2103
     26 C         145.7603  141.5295  163.8435 C.3     1  UNL1        0.2542
     27 O         145.3764  140.0805  163.8980 O.3     1  UNL1       -0.4561
     28 N         140.4450  146.1555  162.4213 N.3     1  UNL1       -0.2926
     29 H         141.3416  146.6405  162.3840 H       1  UNL1        0.1236
     30 C         140.1198  145.7381  161.0178 C.3     1  UNL1        0.1152
     31 C         140.7630  144.5168  160.4305 C.ar    1  UNL1        0.0765
     32 C         140.0850  143.1837  160.5447 C.ar    1  UNL1        0.0193
     33 C         140.7282  141.9624  159.9574 C.ar    1  UNL1        0.0411
     34 C         142.0493  142.0744  159.2559 C.ar    1  UNL1        0.1708
     35 C         142.7273  143.4075  159.1418 C.ar    1  UNL1        0.1682
     36 N         142.0841  144.6288  159.7291 N.ar    1  UNL1       -0.2304
     37 N         144.0484  143.5194  158.4403 N.am    1  UNL1       -0.2639
     38 C         144.6916  142.2982  157.8531 C.2     1  UNL1        0.2718
     39 O         146.0127  142.4101  157.1516 O.2     1  UNL1       -0.2707
     40 C         144.0136  140.9650  157.9672 C.3     1  UNL1        0.2898
     41 O         142.6925  140.8531  158.6686 O.3     1  UNL1       -0.4628
     42 H         144.4934  144.3944  158.3654 H       1  UNL1        0.1565
@<TRIPOS>BOND
     1    26    27    1
     2    27    15    1
     3    15    16   ar
     4    16    17   ar
     5    17    18   ar
     6    18    19   ar
     7    19    20   ar
     8    20    21   ar
     9    21    22    1
    10    21    23   ar
    11     9    23    1
    12     9    10    1
    13    10    11    1
    14    11    12    2
    15    11    13    1
    16    14    13    1
    17    14     1    1
    18     1     2    1
    19     2     3    1
    20     3     4    1
    21     4    28    1
    22    28    30    1
    23    30    31    1
    24    31    32   ar
    25    32    33   ar
    26    33    34   ar
    27    34    35   ar
    28    35    36   ar
    29    35    37    1
    30    37    38   am
    31    38    39    2
    32    38    40    1
    33    40    41    1
    34     4     5    1
    35     5     6    1
    36     4     7    1
    37     7     8    1
    38    23    24   ar
    39    24    25   ar
    40    25    15   ar
    41    24    18   ar
    42    14     9    1
    43     6     1    1
    44     8     1    1
    45    36    31   ar
    46    41    34    1
    47    28    29    1
    48    37    42    1
@<TRIPOS>MOLECULE
*****
 42 48 0 0 0
SMALL
GASTEIGER

@<TRIPOS>ATOM
      1 C         142.4312  143.7884  159.9291 C.3     1  UNL1        0.1335
      2 C         143.4791  142.9112  159.3107 C.3     1  UNL1        0.0324
      3 C         144.5727  142.3358  160.1608 C.3     1  UNL1        0.0195
      4 C         144.6185  142.6376  161.6295 C.3     1  UNL1        0.0700
      5 C         143.5706  143.5147  162.2479 C.3     1  UNL1        0.0195
      6 C         142.4769  144.0902  161.3977 C.3     1  UNL1        0.0324
      7 C         143.9998  142.9758  161.2042 C.3     1  UNL1        0.1563
      8 O         143.0110  143.4960  160.4355 O.3     1  UNL1       -0.3535
      9 C         140.0449  143.6881  158.7289 C.3     1  UNL1        0.2404
     10 O         139.2530  144.6226  157.8631 O.3     1  UNL1       -0.4132
     11 C         140.0562  145.8759  157.6781 C.2     1  UNL1        0.5122
     12 O         139.6435  147.0780  156.8815 O.2     1  UNL1       -0.2028
     13 O         141.3446  145.7159  158.4295 O.3     1  UNL1       -0.4152
     14 C         141.3376  144.3638  159.0789 C.3     1  UNL1        0.2408
     15 C         137.8888  143.1478  162.6416 C.ar    1  UNL1        0.2250
     16 C         137.4628  141.7781  163.0802 C.ar    1  UNL1        0.0593
     17 C         137.7556  140.5885  162.2147 C.ar    1  UNL1        0.0254
     18 C         138.4743  140.7686  160.9105 C.ar    1  UNL1        0.0991
     19 N         138.7670  139.5790  160.0449 N.ar    1  UNL1       -0.2400
     20 C         139.4857  139.7591  158.7407 C.ar    1  UNL1        0.1282
     21 C         139.9117  141.1288  158.3020 C.ar    1  UNL1        0.1601
     22 F         140.6304  141.3089  156.9978 F       1  UNL1       -0.2027
     23 C         139.6189  142.3184  159.1675 C.ar    1  UNL1        0.0693
     24 C         138.9002  142.1383  160.4718 C.ar    1  UNL1        0.1037
     25 N         138.6075  143.3279  161.3374 N.ar    1  UNL1       -0.2103
     26 C         138.5192  144.6890  164.6359 C.3     1  UNL1        0.2542
     27 O         137.5961  144.3374  163.5071 O.3     1  UNL1       -0.4561
     28 N         145.7122  142.0622  162.4797 N.3     1  UNL1       -0.2926
     29 H         146.1044  142.8349  163.0177 H       1  UNL1        0.1236
     30 C         145.4047  140.9664  163.4568 C.3     1  UNL1        0.1152
     31 C         144.2262  140.0669  163.2285 C.ar    1  UNL1        0.0765
     32 C         144.2554  139.0599  162.1171 C.ar    1  UNL1        0.0193
     33 C         143.0769  138.1605  161.8889 C.ar    1  UNL1        0.0411
     34 C         141.8692  138.2681  162.7719 C.ar    1  UNL1        0.1708
     35 C         141.8399  139.2750  163.8832 C.ar    1  UNL1        0.1682
     36 N         143.0185  140.1745  164.1116 N.ar    1  UNL1       -0.2304
     37 N         140.6322  139.3826  164.7663 N.am    1  UNL1       -0.2639
     38 C         139.4537  138.4832  164.5380 C.2     1  UNL1        0.2718
     39 O         138.2460  138.5908  165.4211 O.2     1  UNL1       -0.2707
     40 C         139.4829  137.4762  163.4267 C.3     1  UNL1        0.2898
     41 O         140.6906  137.3686  162.5436 O.3     1  UNL1       -0.4628
     42 H         140.6130  140.0436  165.4957 H       1  UNL1        0.1565
@<TRIPOS>BOND
     1    26    27    1
     2    27    15    1
     3    15    16   ar
     4    16    17   ar
     5    17    18   ar
     6    18    19   ar
     7    19    20   ar
     8    20    21   ar
     9    21    22    1
    10    21    23   ar
    11     9    23    1
    12     9    10    1
    13    10    11    1
    14    11    12    2
    15    11    13    1
    16    14    13    1
    17    14     1    1
    18     1     2    1
    19     2     3    1
    20     3     4    1
    21     4    28    1
    22    28    30    1
    23    30    31    1
    24    31    32   ar
    25    32    33   ar
    26    33    34   ar
    27    34    35   ar
    28    35    36   ar
    29    35    37    1
    30    37    38   am
    31    38    39    2
    32    38    40    1
    33    40    41    1
    34     4     5    1
    35     5     6    1
    36     4     7    1
    37     7     8    1
    38    23    24   ar
    39    24    25   ar
    40    25    15   ar
    41    24    18   ar
    42    14     9    1
    43     6     1    1
    44     8     1    1
    45    36    31   ar
    46    41    34    1
    47    28    29    1
    48    37    42    1
