@<TRIPOS>MOLECULE
*****
 37 42 0 0 0
SMALL
GASTEIGER

@<TRIPOS>ATOM
      1 O         142.5238  144.5048  159.9864 O.2     1  UNL1       -0.2526
      2 C         141.8518  143.2036  160.3111 C.2     1  UNL1        0.3040
      3 N         140.8218  143.1426  161.3998 N.am    1  UNL1       -0.2874
      4 N         142.2098  141.9635  159.5470 N.am    1  UNL1       -0.2642
      5 C         143.2398  142.0245  158.4583 C.3     1  UNL1        0.0954
      6 C         143.5978  140.7843  157.6942 C.3     1  UNL1        0.0309
      7 C         142.9258  139.4831  158.0189 C.3     1  UNL1        0.0827
      8 C         141.8958  139.4221  159.1076 C.3     1  UNL1        0.0309
      9 C         141.5378  140.6623  159.8717 C.3     1  UNL1        0.0954
     10 H         140.3807  142.2886  161.6129 H       1  UNL1        0.1510
     11 C         143.2838  138.2430  157.2548 C.ar    1  UNL1        0.2362
     12 N         142.8050  136.8534  157.5550 N.ar    1  UNL1       -0.1895
     13 C         143.4088  135.9263  156.5421 C.ar    1  UNL1        0.2210
     14 N         144.2606  136.7428  155.6159 N.ar    1  UNL1       -0.0544
     15 O         144.1834  138.1746  156.0564 O.2     1  UNL1       -0.3370
     16 C         143.1977  134.4430  156.4683 C.ar    1  UNL1        0.1202
     17 C         142.0874  133.8843  155.6287 C.ar    1  UNL1        0.0224
     18 C         141.8763  132.4011  155.5549 C.ar    1  UNL1        0.0031
     19 C         142.7755  131.4765  156.3207 C.ar    1  UNL1        0.0177
     20 C         142.5644  129.9933  156.2470 C.ar    1  UNL1        0.0015
     21 C         143.4636  129.0688  157.0128 C.ar    1  UNL1        0.0001
     22 C         144.5740  129.6275  157.8524 C.ar    1  UNL1        0.0015
     23 C         144.7851  131.1107  157.9262 C.ar    1  UNL1        0.0191
     24 C         143.8859  132.0352  157.1604 C.ar    1  UNL1        0.0814
     25 N         144.0970  133.5185  157.2341 N.ar    1  UNL1       -0.2422
     26 C         140.4637  144.3828  162.1640 C.3     1  UNL1        0.1054
     27 C         139.8660  144.2725  163.5353 C.3     1  UNL1        0.0634
     28 C         139.5672  144.1429  164.9995 C.3     1  UNL1        0.0164
     29 C         138.0778  144.1778  165.1735 C.3     1  UNL1        0.0014
     30 C         137.4560  144.3289  163.8168 C.3     1  UNL1        0.0014
     31 C         138.5612  144.3874  162.8043 C.3     1  UNL1        0.0164
     32 N         141.2958  144.1806  163.9796 N.3     1  UNL1       -0.2736
     33 C         141.7448  143.0282  164.8283 C.3     1  UNL1        0.0721
     34 C         143.1746  142.9363  165.2726 C.3     1  UNL1        0.0174
     35 C         144.1553  143.9968  164.8681 C.3     1  UNL1        0.0029
     36 C         143.7062  145.1492  164.0193 C.3     1  UNL1        0.0174
     37 C         142.2765  145.2411  163.5751 C.3     1  UNL1        0.0721
@<TRIPOS>BOND
     1     1     2    2
     2     2     3   am
     3     3    26    1
     4    26    27    1
     5    27    32    1
     6    32    33    1
     7    33    34    1
     8    34    35    1
     9    35    36    1
    10    36    37    1
    11    27    28    1
    12    28    29    1
    13    29    30    1
    14    30    31    1
    15     2     4   am
    16     4     5    1
    17     5     6    1
    18     6     7    1
    19     7    11    1
    20    11    12   ar
    21    12    13   ar
    22    13    16    1
    23    16    17   ar
    24    17    18   ar
    25    18    19   ar
    26    19    20   ar
    27    20    21   ar
    28    21    22   ar
    29    22    23   ar
    30    23    24   ar
    31    24    25   ar
    32    13    14   ar
    33    14    15   ar
    34     7     8    1
    35     8     9    1
    36    31    27    1
    37     9     4    1
    38    37    32    1
    39    15    11   ar
    40    25    16   ar
    41    24    19   ar
    42     3    10    1
@<TRIPOS>MOLECULE
*****
 37 42 0 0 0
SMALL
GASTEIGER

@<TRIPOS>ATOM
      1 O         140.9390  144.2620  163.9068 O.2     1  UNL1       -0.2526
      2 C         141.4971  142.8819  163.7229 C.2     1  UNL1        0.3040
      3 N         141.3356  141.8571  164.8062 N.am    1  UNL1       -0.2874
      4 N         142.2168  142.5266  162.4557 N.am    1  UNL1       -0.2642
      5 C         142.3784  143.5515  161.3724 C.3     1  UNL1        0.0954
      6 C         143.0981  143.1962  160.1052 C.3     1  UNL1        0.0309
      7 C         143.6562  141.8161  159.9213 C.3     1  UNL1        0.0827
      8 C         143.4946  140.7912  161.0046 C.3     1  UNL1        0.0309
      9 C         142.7749  141.1465  162.2718 C.3     1  UNL1        0.0954
     10 H         141.7019  140.9512  164.6855 H       1  UNL1        0.1510
     11 C         144.3758  141.4608  158.6541 C.ar    1  UNL1        0.2362
     12 N         145.3550  142.3306  157.9226 N.ar    1  UNL1       -0.1895
     13 C         145.8270  141.5806  156.7123 C.ar    1  UNL1        0.2210
     14 N         145.1397  140.2475  156.6958 N.ar    1  UNL1       -0.0544
     15 O         144.2429  140.1734  157.8958 O.2     1  UNL1       -0.3370
     16 C         146.8132  142.0769  155.6969 C.ar    1  UNL1        0.1202
     17 C         146.3814  143.0612  154.6506 C.ar    1  UNL1        0.0224
     18 C         147.3676  143.5575  153.6352 C.ar    1  UNL1        0.0031
     19 C         148.7856  143.0694  153.6659 C.ar    1  UNL1        0.0177
     20 C         149.7718  143.5656  152.6505 C.ar    1  UNL1        0.0015
     21 C         151.1898  143.0775  152.6812 C.ar    1  UNL1        0.0001
     22 C         151.6216  142.0931  153.7275 C.ar    1  UNL1        0.0015
     23 C         150.6355  141.5969  154.7429 C.ar    1  UNL1        0.0191
     24 C         149.2175  142.0850  154.7121 C.ar    1  UNL1        0.0814
     25 N         148.2312  141.5888  155.7276 N.ar    1  UNL1       -0.2422
     26 C         140.6158  142.2123  166.0735 C.3     1  UNL1        0.1054
     27 C         140.0075  141.1325  166.9185 C.3     1  UNL1        0.0634
     28 C         139.5851  140.1689  167.9876 C.3     1  UNL1        0.0164
     29 C         138.5617  139.2434  167.3994 C.3     1  UNL1        0.0014
     30 C         138.3516  139.6350  165.9667 C.3     1  UNL1        0.0014
     31 C         139.2451  140.8025  165.6695 C.3     1  UNL1        0.0164
     32 N         140.8970  141.6883  167.9908 N.3     1  UNL1       -0.2736
     33 C         142.2583  141.0997  168.2157 C.3     1  UNL1        0.0721
     34 C         143.1478  141.6555  169.2880 C.3     1  UNL1        0.0174
     35 C         142.6761  142.7998  170.1354 C.3     1  UNL1        0.0029
     36 C         141.3149  143.3884  169.9105 C.3     1  UNL1        0.0174
     37 C         140.4253  142.8326  168.8382 C.3     1  UNL1        0.0721
@<TRIPOS>BOND
     1     1     2    2
     2     2     3   am
     3     3    26    1
     4    26    27    1
     5    27    32    1
     6    32    33    1
     7    33    34    1
     8    34    35    1
     9    35    36    1
    10    36    37    1
    11    27    28    1
    12    28    29    1
    13    29    30    1
    14    30    31    1
    15     2     4   am
    16     4     5    1
    17     5     6    1
    18     6     7    1
    19     7    11    1
    20    11    12   ar
    21    12    13   ar
    22    13    16    1
    23    16    17   ar
    24    17    18   ar
    25    18    19   ar
    26    19    20   ar
    27    20    21   ar
    28    21    22   ar
    29    22    23   ar
    30    23    24   ar
    31    24    25   ar
    32    13    14   ar
    33    14    15   ar
    34     7     8    1
    35     8     9    1
    36    31    27    1
    37     9     4    1
    38    37    32    1
    39    15    11   ar
    40    25    16   ar
    41    24    19   ar
    42     3    10    1
@<TRIPOS>MOLECULE
*****
 37 42 0 0 0
SMALL
GASTEIGER

@<TRIPOS>ATOM
      1 O         140.8389  143.6297  165.3593 O.2     1  UNL1       -0.2526
      2 C         140.9730  142.6556  164.2265 C.2     1  UNL1        0.3040
      3 N         141.3539  141.2314  164.5031 N.am    1  UNL1       -0.2874
      4 N         140.7262  143.1057  162.8171 N.am    1  UNL1       -0.2642
      5 C         140.3453  144.5299  162.5405 C.3     1  UNL1        0.0954
      6 C         140.0985  144.9801  161.1311 C.3     1  UNL1        0.0309
      7 C         140.2326  144.0060  159.9983 C.3     1  UNL1        0.0827
      8 C         140.6135  142.5818  160.2749 C.3     1  UNL1        0.0309
      9 C         140.8603  142.1316  161.6843 C.3     1  UNL1        0.0954
     10 H         141.4419  140.5921  163.7596 H       1  UNL1        0.1510
     11 C         139.9858  144.4561  158.5889 C.ar    1  UNL1        0.2362
     12 N         140.0994  145.8626  158.0798 N.ar    1  UNL1       -0.1895
     13 C         139.7659  145.8545  156.6173 C.ar    1  UNL1        0.2210
     14 N         139.4462  144.4431  156.2226 N.ar    1  UNL1       -0.0544
     15 O         139.5821  143.5789  157.4410 O.2     1  UNL1       -0.3370
     16 C         139.7541  147.0483  155.7091 C.ar    1  UNL1        0.1202
     17 C         140.3946  146.9669  154.3552 C.ar    1  UNL1        0.0224
     18 C         140.3829  148.1606  153.4470 C.ar    1  UNL1        0.0031
     19 C         139.7307  149.4358  153.8927 C.ar    1  UNL1        0.0177
     20 C         139.7189  150.6295  152.9845 C.ar    1  UNL1        0.0015
     21 C         139.0668  151.9046  153.4302 C.ar    1  UNL1        0.0001
     22 C         138.4263  151.9859  154.7842 C.ar    1  UNL1        0.0015
     23 C         138.4380  150.7922  155.6924 C.ar    1  UNL1        0.0191
     24 C         139.0902  149.5171  155.2466 C.ar    1  UNL1        0.0814
     25 N         139.1019  148.3233  156.1549 N.ar    1  UNL1       -0.2422
     26 C         141.6007  140.7812  165.9126 C.3     1  UNL1        0.1054
     27 C         140.4524  140.3397  166.7708 C.3     1  UNL1        0.0634
     28 C         139.4431  140.0742  167.8482 C.3     1  UNL1        0.0164
     29 C         138.3948  139.1603  167.2863 C.3     1  UNL1        0.0014
     30 C         138.7562  138.8610  165.8616 C.3     1  UNL1        0.0014
     31 C         140.0279  139.5898  165.5430 C.3     1  UNL1        0.0164
     32 N         141.1170  141.1818  167.8192 N.3     1  UNL1       -0.2736
     33 C         142.5385  140.9072  168.2118 C.3     1  UNL1        0.0721
     34 C         143.2030  141.7493  169.2602 C.3     1  UNL1        0.0174
     35 C         142.4462  142.8661  169.9160 C.3     1  UNL1        0.0029
     36 C         141.0248  143.1407  169.5234 C.3     1  UNL1        0.0174
     37 C         140.3602  142.2986  168.4750 C.3     1  UNL1        0.0721
@<TRIPOS>BOND
     1     1     2    2
     2     2     3   am
     3     3    26    1
     4    26    27    1
     5    27    32    1
     6    32    33    1
     7    33    34    1
     8    34    35    1
     9    35    36    1
    10    36    37    1
    11    27    28    1
    12    28    29    1
    13    29    30    1
    14    30    31    1
    15     2     4   am
    16     4     5    1
    17     5     6    1
    18     6     7    1
    19     7    11    1
    20    11    12   ar
    21    12    13   ar
    22    13    16    1
    23    16    17   ar
    24    17    18   ar
    25    18    19   ar
    26    19    20   ar
    27    20    21   ar
    28    21    22   ar
    29    22    23   ar
    30    23    24   ar
    31    24    25   ar
    32    13    14   ar
    33    14    15   ar
    34     7     8    1
    35     8     9    1
    36    31    27    1
    37     9     4    1
    38    37    32    1
    39    15    11   ar
    40    25    16   ar
    41    24    19   ar
    42     3    10    1
@<TRIPOS>MOLECULE
*****
 37 42 0 0 0
SMALL
GASTEIGER

@<TRIPOS>ATOM
      1 O         143.8628  140.8126  164.8506 O.2     1  UNL1       -0.2526
      2 C         142.6398  140.2298  164.2068 C.2     1  UNL1        0.3040
      3 N         141.3354  140.2188  164.9473 N.am    1  UNL1       -0.2874
      4 N         142.7211  139.6580  162.8224 N.am    1  UNL1       -0.2642
      5 C         144.0255  139.6690  162.0819 C.3     1  UNL1        0.0954
      6 C         144.1068  139.0972  160.6976 C.3     1  UNL1        0.0309
      7 C         142.8837  138.5144  160.0538 C.3     1  UNL1        0.0827
      8 C         141.5793  138.5035  160.7943 C.3     1  UNL1        0.0309
      9 C         141.4980  139.0753  162.1786 C.3     1  UNL1        0.0954
     10 H         140.5326  139.8363  164.5248 H       1  UNL1        0.1510
     11 C         142.9650  137.9427  158.6694 C.ar    1  UNL1        0.2362
     12 N         142.9170  136.4864  158.3127 N.ar    1  UNL1       -0.1895
     13 C         143.0309  136.3705  156.8215 C.ar    1  UNL1        0.2210
     14 N         143.1493  137.7550  156.2566 N.ar    1  UNL1       -0.0544
     15 O         143.1085  138.7267  157.3986 O.2     1  UNL1       -0.3370
     16 C         143.0272  135.0941  156.0336 C.ar    1  UNL1        0.1202
     17 C         142.1382  134.9563  154.8333 C.ar    1  UNL1        0.0224
     18 C         142.1344  133.6799  154.0454 C.ar    1  UNL1        0.0031
     19 C         143.0196  132.5413  154.4578 C.ar    1  UNL1        0.0177
     20 C         143.0158  131.2649  153.6699 C.ar    1  UNL1        0.0015
     21 C         143.9009  130.1263  154.0823 C.ar    1  UNL1        0.0001
     22 C         144.7899  130.2641  155.2826 C.ar    1  UNL1        0.0015
     23 C         144.7937  131.5405  156.0705 C.ar    1  UNL1        0.0191
     24 C         143.9085  132.6790  155.6581 C.ar    1  UNL1        0.0814
     25 N         143.9123  133.9555  156.4460 N.ar    1  UNL1       -0.2422
     26 C         141.2540  140.7907  166.3317 C.3     1  UNL1        0.1054
     27 C         140.1695  140.3422  167.2659 C.3     1  UNL1        0.0634
     28 C         139.2479  140.0549  168.4140 C.3     1  UNL1        0.0164
     29 C         138.1258  139.1996  167.9049 C.3     1  UNL1        0.0014
     30 C         138.3538  138.9582  166.4421 C.3     1  UNL1        0.0014
     31 C         139.6169  139.6643  166.0471 C.3     1  UNL1        0.0164
     32 N         140.9488  141.1137  168.2893 N.3     1  UNL1       -0.2736
     33 C         140.3792  142.3725  168.8733 C.3     1  UNL1        0.0721
     34 C         141.1585  143.1440  169.8967 C.3     1  UNL1        0.0174
     35 C         142.5074  142.6568  170.3361 C.3     1  UNL1        0.0029
     36 C         143.0770  141.3981  169.7521 C.3     1  UNL1        0.0174
     37 C         142.2977  140.6265  168.7287 C.3     1  UNL1        0.0721
@<TRIPOS>BOND
     1     1     2    2
     2     2     3   am
     3     3    26    1
     4    26    27    1
     5    27    32    1
     6    32    33    1
     7    33    34    1
     8    34    35    1
     9    35    36    1
    10    36    37    1
    11    27    28    1
    12    28    29    1
    13    29    30    1
    14    30    31    1
    15     2     4   am
    16     4     5    1
    17     5     6    1
    18     6     7    1
    19     7    11    1
    20    11    12   ar
    21    12    13   ar
    22    13    16    1
    23    16    17   ar
    24    17    18   ar
    25    18    19   ar
    26    19    20   ar
    27    20    21   ar
    28    21    22   ar
    29    22    23   ar
    30    23    24   ar
    31    24    25   ar
    32    13    14   ar
    33    14    15   ar
    34     7     8    1
    35     8     9    1
    36    31    27    1
    37     9     4    1
    38    37    32    1
    39    15    11   ar
    40    25    16   ar
    41    24    19   ar
    42     3    10    1
@<TRIPOS>MOLECULE
*****
 37 42 0 0 0
SMALL
GASTEIGER

@<TRIPOS>ATOM
      1 O         138.5980  141.0102  164.7362 O.2     1  UNL1       -0.2526
      2 C         139.8376  141.5669  164.1011 C.2     1  UNL1        0.3040
      3 N         141.1284  141.5851  164.8650 N.am    1  UNL1       -0.2874
      4 N         139.7865  142.1054  162.7020 N.am    1  UNL1       -0.2642
      5 C         138.4958  142.0872  161.9381 C.3     1  UNL1        0.0954
      6 C         138.4447  142.6257  160.5390 C.3     1  UNL1        0.0309
      7 C         139.6843  143.1825  159.9039 C.3     1  UNL1        0.0827
      8 C         140.9751  143.2007  160.6679 C.3     1  UNL1        0.0309
      9 C         141.0262  142.6622  162.0669 C.3     1  UNL1        0.0954
     10 H         141.9420  141.9505  164.4482 H       1  UNL1        0.1510
     11 C         139.6332  143.7210  158.5049 C.ar    1  UNL1        0.2362
     12 N         139.7115  145.1669  158.1132 N.ar    1  UNL1       -0.1895
     13 C         139.6216  145.2476  156.6181 C.ar    1  UNL1        0.2210
     14 N         139.4876  143.8517  156.0857 N.ar    1  UNL1       -0.0544
     15 O         139.4948  142.9082  157.2517 O.2     1  UNL1       -0.3370
     16 C         139.6589  146.5038  155.7992 C.ar    1  UNL1        0.1202
     17 C         140.3508  146.5112  154.4683 C.ar    1  UNL1        0.0224
     18 C         140.3882  147.7673  153.6494 C.ar    1  UNL1        0.0031
     19 C         139.7337  149.0162  154.1613 C.ar    1  UNL1        0.0177
     20 C         139.7711  150.2723  153.3424 C.ar    1  UNL1        0.0015
     21 C         139.1167  151.5211  153.8544 C.ar    1  UNL1        0.0001
     22 C         138.4248  151.5138  155.1853 C.ar    1  UNL1        0.0015
     23 C         138.3874  150.2576  156.0042 C.ar    1  UNL1        0.0191
     24 C         139.0419  149.0089  155.4922 C.ar    1  UNL1        0.0814
     25 N         139.0045  147.7526  156.3111 N.ar    1  UNL1       -0.2422
     26 C         141.1795  141.0466  166.2642 C.3     1  UNL1        0.1054
     27 C         142.1248  139.9329  166.6050 C.3     1  UNL1        0.0634
     28 C         142.9312  138.8315  167.2268 C.3     1  UNL1        0.0164
     29 C         143.8961  138.3249  166.1961 C.3     1  UNL1        0.0014
     30 C         143.6860  139.1132  164.9374 C.3     1  UNL1        0.0014
     31 C         142.5913  140.1070  165.1901 C.3     1  UNL1        0.0164
     32 N         141.4606  139.9916  167.9487 N.3     1  UNL1       -0.2736
     33 C         142.2723  139.8007  169.1955 C.3     1  UNL1        0.0721
     34 C         141.6082  139.8594  170.5392 C.3     1  UNL1        0.0174
     35 C         140.1323  140.1091  170.6360 C.3     1  UNL1        0.0029
     36 C         139.3205  140.3001  169.3892 C.3     1  UNL1        0.0174
     37 C         139.9847  140.2413  168.0455 C.3     1  UNL1        0.0721
@<TRIPOS>BOND
     1     1     2    2
     2     2     3   am
     3     3    26    1
     4    26    27    1
     5    27    32    1
     6    32    33    1
     7    33    34    1
     8    34    35    1
     9    35    36    1
    10    36    37    1
    11    27    28    1
    12    28    29    1
    13    29    30    1
    14    30    31    1
    15     2     4   am
    16     4     5    1
    17     5     6    1
    18     6     7    1
    19     7    11    1
    20    11    12   ar
    21    12    13   ar
    22    13    16    1
    23    16    17   ar
    24    17    18   ar
    25    18    19   ar
    26    19    20   ar
    27    20    21   ar
    28    21    22   ar
    29    22    23   ar
    30    23    24   ar
    31    24    25   ar
    32    13    14   ar
    33    14    15   ar
    34     7     8    1
    35     8     9    1
    36    31    27    1
    37     9     4    1
    38    37    32    1
    39    15    11   ar
    40    25    16   ar
    41    24    19   ar
    42     3    10    1
@<TRIPOS>MOLECULE
*****
 37 42 0 0 0
SMALL
GASTEIGER

@<TRIPOS>ATOM
      1 O         144.1778  141.9835  164.6150 O.2     1  UNL1       -0.2526
      2 C         143.2515  140.8306  164.3641 C.2     1  UNL1        0.3040
      3 N         142.4099  140.2879  165.4809 N.am    1  UNL1       -0.2874
      4 N         143.1669  140.2203  162.9965 N.am    1  UNL1       -0.2642
      5 C         144.0085  140.7630  161.8797 C.3     1  UNL1        0.0954
      6 C         143.9239  140.1528  160.5121 C.3     1  UNL1        0.0309
      7 C         142.9976  138.9998  160.2613 C.3     1  UNL1        0.0827
      8 C         142.1560  138.4572  161.3780 C.3     1  UNL1        0.0309
      9 C         142.2406  139.0674  162.7457 C.3     1  UNL1        0.0954
     10 H         141.8020  139.5312  165.3162 H       1  UNL1        0.1510
     11 C         142.9130  138.3896  158.8936 C.ar    1  UNL1        0.2362
     12 N         143.0152  136.9279  158.5725 N.ar    1  UNL1       -0.1895
     13 C         142.8766  136.7689  157.0874 C.ar    1  UNL1        0.2210
     14 N         142.6889  138.1322  156.4907 N.ar    1  UNL1       -0.0544
     15 O         142.7113  139.1339  157.6070 O.2     1  UNL1       -0.3370
     16 C         142.9186  135.4738  156.3316 C.ar    1  UNL1        0.1202
     17 C         142.0110  135.2616  155.1563 C.ar    1  UNL1        0.0224
     18 C         142.0529  133.9666  154.4006 C.ar    1  UNL1        0.0031
     19 C         143.0024  132.8837  154.8202 C.ar    1  UNL1        0.0177
     20 C         143.0442  131.5887  154.0645 C.ar    1  UNL1        0.0015
     21 C         143.9936  130.5058  154.4841 C.ar    1  UNL1        0.0001
     22 C         144.9011  130.7181  155.6595 C.ar    1  UNL1        0.0015
     23 C         144.8593  132.0131  156.4152 C.ar    1  UNL1        0.0191
     24 C         143.9099  133.0959  155.9955 C.ar    1  UNL1        0.0814
     25 N         143.8680  134.3910  156.7513 N.ar    1  UNL1       -0.2422
     26 C         142.4945  140.8981  166.8486 C.3     1  UNL1        0.1054
     27 C         141.4179  140.6290  167.8579 C.3     1  UNL1        0.0634
     28 C         140.1566  140.5061  168.6602 C.3     1  UNL1        0.0164
     29 C         140.4862  139.7873  169.9348 C.3     1  UNL1        0.0014
     30 C         141.9513  139.4661  169.9203 C.3     1  UNL1        0.0014
     31 C         142.5272  139.9863  168.6366 C.3     1  UNL1        0.0164
     32 N         140.5338  141.3281  166.8681 N.3     1  UNL1       -0.2736
     33 C         139.4514  140.5674  166.1612 C.3     1  UNL1        0.0721
     34 C         138.5673  141.2664  165.1714 C.3     1  UNL1        0.0174
     35 C         138.7655  142.7261  164.8886 C.3     1  UNL1        0.0029
     36 C         139.8479  143.4868  165.5955 C.3     1  UNL1        0.0174
     37 C         140.7320  142.7878  166.5853 C.3     1  UNL1        0.0721
@<TRIPOS>BOND
     1     1     2    2
     2     2     3   am
     3     3    26    1
     4    26    27    1
     5    27    32    1
     6    32    33    1
     7    33    34    1
     8    34    35    1
     9    35    36    1
    10    36    37    1
    11    27    28    1
    12    28    29    1
    13    29    30    1
    14    30    31    1
    15     2     4   am
    16     4     5    1
    17     5     6    1
    18     6     7    1
    19     7    11    1
    20    11    12   ar
    21    12    13   ar
    22    13    16    1
    23    16    17   ar
    24    17    18   ar
    25    18    19   ar
    26    19    20   ar
    27    20    21   ar
    28    21    22   ar
    29    22    23   ar
    30    23    24   ar
    31    24    25   ar
    32    13    14   ar
    33    14    15   ar
    34     7     8    1
    35     8     9    1
    36    31    27    1
    37     9     4    1
    38    37    32    1
    39    15    11   ar
    40    25    16   ar
    41    24    19   ar
    42     3    10    1
@<TRIPOS>MOLECULE
*****
 37 42 0 0 0
SMALL
GASTEIGER

@<TRIPOS>ATOM
      1 O         139.9135  142.2120  163.0637 O.2     1  UNL1       -0.2526
      2 C         141.3647  141.8376  163.1264 C.2     1  UNL1        0.3040
      3 N         142.0436  141.6866  164.4554 N.am    1  UNL1       -0.2874
      4 N         142.1370  141.6141  161.8601 N.am    1  UNL1       -0.2642
      5 C         141.4581  141.7650  160.5311 C.3     1  UNL1        0.0954
      6 C         142.2304  141.5415  159.2647 C.3     1  UNL1        0.0309
      7 C         143.6816  141.1670  159.3274 C.3     1  UNL1        0.0827
      8 C         144.3605  141.0161  160.6565 C.3     1  UNL1        0.0309
      9 C         143.5882  141.2396  161.9228 C.3     1  UNL1        0.0954
     10 H         142.9961  141.4409  164.4965 H       1  UNL1        0.1510
     11 C         144.4539  140.9435  158.0611 C.ar    1  UNL1        0.2362
     12 N         145.4734  141.8743  157.4742 N.ar    1  UNL1       -0.1895
     13 C         145.9918  141.2559  156.2097 C.ar    1  UNL1        0.2210
     14 N         145.2928  139.9431  156.0151 N.ar    1  UNL1       -0.0544
     15 O         144.3423  139.7500  157.1593 O.2     1  UNL1       -0.3370
     16 C         147.0275  141.8468  155.2996 C.ar    1  UNL1        0.1202
     17 C         146.6109  142.7426  154.1709 C.ar    1  UNL1        0.0224
     18 C         147.6465  143.3335  153.2608 C.ar    1  UNL1        0.0031
     19 C         149.0989  143.0285  153.4794 C.ar    1  UNL1        0.0177
     20 C         150.1345  143.6194  152.5693 C.ar    1  UNL1        0.0015
     21 C         151.5868  143.3144  152.7878 C.ar    1  UNL1        0.0001
     22 C         152.0035  142.4185  153.9165 C.ar    1  UNL1        0.0015
     23 C         150.9678  141.8277  154.8266 C.ar    1  UNL1        0.0191
     24 C         149.5155  142.1327  154.6080 C.ar    1  UNL1        0.0814
     25 N         148.4798  141.5418  155.5181 N.ar    1  UNL1       -0.2422
     26 C         141.2713  141.9102  165.7218 C.3     1  UNL1        0.1054
     27 C         141.5456  141.0608  166.9274 C.3     1  UNL1        0.0634
     28 C         141.6274  140.0076  167.9923 C.3     1  UNL1        0.0164
     29 C         142.5411  140.5091  169.0710 C.3     1  UNL1        0.0014
     30 C         143.0240  141.8723  168.6727 C.3     1  UNL1        0.0014
     31 C         142.4088  142.2133  167.3478 C.3     1  UNL1        0.0164
     32 N         140.6251  140.0859  166.2548 N.3     1  UNL1       -0.2736
     33 C         139.1588  140.3858  166.1543 C.3     1  UNL1        0.0721
     34 C         138.2383  139.4110  165.4818 C.3     1  UNL1        0.0174
     35 C         138.7840  138.1362  164.9098 C.3     1  UNL1        0.0029
     36 C         140.2503  137.8363  165.0103 C.3     1  UNL1        0.0174
     37 C         141.1708  138.8112  165.6828 C.3     1  UNL1        0.0721
@<TRIPOS>BOND
     1     1     2    2
     2     2     3   am
     3     3    26    1
     4    26    27    1
     5    27    32    1
     6    32    33    1
     7    33    34    1
     8    34    35    1
     9    35    36    1
    10    36    37    1
    11    27    28    1
    12    28    29    1
    13    29    30    1
    14    30    31    1
    15     2     4   am
    16     4     5    1
    17     5     6    1
    18     6     7    1
    19     7    11    1
    20    11    12   ar
    21    12    13   ar
    22    13    16    1
    23    16    17   ar
    24    17    18   ar
    25    18    19   ar
    26    19    20   ar
    27    20    21   ar
    28    21    22   ar
    29    22    23   ar
    30    23    24   ar
    31    24    25   ar
    32    13    14   ar
    33    14    15   ar
    34     7     8    1
    35     8     9    1
    36    31    27    1
    37     9     4    1
    38    37    32    1
    39    15    11   ar
    40    25    16   ar
    41    24    19   ar
    42     3    10    1
@<TRIPOS>MOLECULE
*****
 37 42 0 0 0
SMALL
GASTEIGER

@<TRIPOS>ATOM
      1 O         140.6255  144.1320  164.1695 O.2     1  UNL1       -0.2526
      2 C         140.9271  143.2473  162.9962 C.2     1  UNL1        0.3040
      3 N         141.4319  141.8525  163.2188 N.am    1  UNL1       -0.2874
      4 N         140.7239  143.7575  161.6004 N.am    1  UNL1       -0.2642
      5 C         140.2191  145.1524  161.3778 C.3     1  UNL1        0.0954
      6 C         140.0160  145.6626  159.9820 C.3     1  UNL1        0.0309
      7 C         140.3176  144.7780  158.8087 C.3     1  UNL1        0.0827
      8 C         140.8223  143.3831  159.0313 C.3     1  UNL1        0.0309
      9 C         141.0255  142.8729  160.4271 C.3     1  UNL1        0.0954
     10 H         141.6298  141.2719  162.4488 H       1  UNL1        0.1510
     11 C         140.1144  145.2882  157.4129 C.ar    1  UNL1        0.2362
     12 N         140.1229  146.7275  156.9902 N.ar    1  UNL1       -0.1895
     13 C         139.8808  146.7774  155.5107 C.ar    1  UNL1        0.2210
     14 N         139.7226  145.3692  155.0190 N.ar    1  UNL1       -0.0544
     15 O         139.8670  144.4488  156.1946 O.2     1  UNL1       -0.3370
     16 C         139.8094  148.0180  154.6705 C.ar    1  UNL1        0.1202
     17 C         140.3423  148.0059  153.2684 C.ar    1  UNL1        0.0224
     18 C         140.2709  149.2464  152.4281 C.ar    1  UNL1        0.0031
     19 C         139.6667  150.4991  152.9900 C.ar    1  UNL1        0.0177
     20 C         139.5953  151.7396  152.1498 C.ar    1  UNL1        0.0015
     21 C         138.9911  152.9922  152.7116 C.ar    1  UNL1        0.0001
     22 C         138.4582  153.0044  154.1137 C.ar    1  UNL1        0.0015
     23 C         138.5296  151.7639  154.9540 C.ar    1  UNL1        0.0191
     24 C         139.1338  150.5113  154.3921 C.ar    1  UNL1        0.0814
     25 N         139.2052  149.2707  155.2323 N.ar    1  UNL1       -0.2422
     26 C         141.6351  141.3422  164.6147 C.3     1  UNL1        0.1054
     27 C         142.4460  140.1023  164.8494 C.3     1  UNL1        0.0634
     28 C         142.9802  138.7351  165.1584 C.3     1  UNL1        0.0164
     29 C         144.4647  138.7583  164.9447 C.3     1  UNL1        0.0014
     30 C         144.8480  140.1399  164.5037 C.3     1  UNL1        0.0014
     31 C         143.6004  140.9705  164.4447 C.3     1  UNL1        0.0164
     32 N         141.1221  139.4934  165.2049 N.3     1  UNL1       -0.2736
     33 C         140.2835  140.1023  166.2893 C.3     1  UNL1        0.0721
     34 C         138.9596  139.4934  166.6449 C.3     1  UNL1        0.0174
     35 C         138.4742  138.2755  165.9161 C.3     1  UNL1        0.0029
     36 C         139.3128  137.6666  164.8317 C.3     1  UNL1        0.0174
     37 C         140.6367  138.2755  164.4761 C.3     1  UNL1        0.0721
@<TRIPOS>BOND
     1     1     2    2
     2     2     3   am
     3     3    26    1
     4    26    27    1
     5    27    32    1
     6    32    33    1
     7    33    34    1
     8    34    35    1
     9    35    36    1
    10    36    37    1
    11    27    28    1
    12    28    29    1
    13    29    30    1
    14    30    31    1
    15     2     4   am
    16     4     5    1
    17     5     6    1
    18     6     7    1
    19     7    11    1
    20    11    12   ar
    21    12    13   ar
    22    13    16    1
    23    16    17   ar
    24    17    18   ar
    25    18    19   ar
    26    19    20   ar
    27    20    21   ar
    28    21    22   ar
    29    22    23   ar
    30    23    24   ar
    31    24    25   ar
    32    13    14   ar
    33    14    15   ar
    34     7     8    1
    35     8     9    1
    36    31    27    1
    37     9     4    1
    38    37    32    1
    39    15    11   ar
    40    25    16   ar
    41    24    19   ar
    42     3    10    1
@<TRIPOS>MOLECULE
*****
 37 42 0 0 0
SMALL
GASTEIGER

@<TRIPOS>ATOM
      1 O         143.4940  139.9987  159.7740 O.2     1  UNL1       -0.2526
      2 C         142.3597  140.9123  160.1327 C.2     1  UNL1        0.3040
      3 N         142.4858  141.8400  161.3047 N.am    1  UNL1       -0.2874
      4 N         141.0994  140.8983  159.3195 N.am    1  UNL1       -0.2642
      5 C         140.9733  139.9706  158.1475 C.3     1  UNL1        0.0954
      6 C         139.7130  139.9565  157.3343 C.3     1  UNL1        0.0309
      7 C         138.5787  140.8702  157.6930 C.3     1  UNL1        0.0827
      8 C         138.7048  141.7979  158.8650 C.3     1  UNL1        0.0309
      9 C         139.9651  141.8119  159.6782 C.3     1  UNL1        0.0954
     10 H         141.7413  142.4396  161.5401 H       1  UNL1        0.1510
     11 C         137.3184  140.8562  156.8798 C.ar    1  UNL1        0.2362
     12 N         135.9694  140.4006  157.3520 N.ar    1  UNL1       -0.1895
     13 C         135.0031  140.5581  156.2156 C.ar    1  UNL1        0.2210
     14 N         135.7547  141.1110  155.0411 N.ar    1  UNL1       -0.0544
     15 O         137.1857  141.2952  155.4516 O.2     1  UNL1       -0.3370
     16 C         133.5416  140.2218  156.2480 C.ar    1  UNL1        0.1202
     17 C         133.0919  138.8787  156.7419 C.ar    1  UNL1        0.0224
     18 C         131.6305  138.5424  156.7744 C.ar    1  UNL1        0.0031
     19 C         130.6187  139.5491  156.3129 C.ar    1  UNL1        0.0177
     20 C         129.1573  139.2127  156.3454 C.ar    1  UNL1        0.0015
     21 C         128.1456  140.2195  155.8840 C.ar    1  UNL1        0.0001
     22 C         128.5953  141.5625  155.3901 C.ar    1  UNL1        0.0015
     23 C         130.0567  141.8989  155.3576 C.ar    1  UNL1        0.0191
     24 C         131.0684  140.8922  155.8190 C.ar    1  UNL1        0.0814
     25 N         132.5299  141.2285  155.7866 N.ar    1  UNL1       -0.2422
     26 C         143.7461  141.8541  162.1179 C.3     1  UNL1        0.1054
     27 C         143.8337  142.7039  163.3508 C.3     1  UNL1        0.0634
     28 C         143.9240  143.2784  164.7335 C.3     1  UNL1        0.0164
     29 C         143.9488  144.7734  164.6136 C.3     1  UNL1        0.0014
     30 C         143.8739  145.1229  163.1568 C.3     1  UNL1        0.0014
     31 C         143.8028  143.8439  162.3763 C.3     1  UNL1        0.0164
     32 N         143.8464  141.3863  164.0675 N.3     1  UNL1       -0.2736
     33 C         145.0058  140.4502  163.8956 C.3     1  UNL1        0.0721
     34 C         145.0184  139.1325  164.6123 C.3     1  UNL1        0.0174
     35 C         143.8717  138.7510  165.5008 C.3     1  UNL1        0.0029
     36 C         142.7123  139.6871  165.6727 C.3     1  UNL1        0.0174
     37 C         142.6997  141.0048  164.9560 C.3     1  UNL1        0.0721
@<TRIPOS>BOND
     1     1     2    2
     2     2     3   am
     3     3    26    1
     4    26    27    1
     5    27    32    1
     6    32    33    1
     7    33    34    1
     8    34    35    1
     9    35    36    1
    10    36    37    1
    11    27    28    1
    12    28    29    1
    13    29    30    1
    14    30    31    1
    15     2     4   am
    16     4     5    1
    17     5     6    1
    18     6     7    1
    19     7    11    1
    20    11    12   ar
    21    12    13   ar
    22    13    16    1
    23    16    17   ar
    24    17    18   ar
    25    18    19   ar
    26    19    20   ar
    27    20    21   ar
    28    21    22   ar
    29    22    23   ar
    30    23    24   ar
    31    24    25   ar
    32    13    14   ar
    33    14    15   ar
    34     7     8    1
    35     8     9    1
    36    31    27    1
    37     9     4    1
    38    37    32    1
    39    15    11   ar
    40    25    16   ar
    41    24    19   ar
    42     3    10    1
