@<TRIPOS>MOLECULE
*****
 23 26 0 0 0
SMALL
GASTEIGER

@<TRIPOS>ATOM
      1 C         137.4001  138.1662  167.0207 C.3     1  UNL1        0.0382
      2 C         138.4682  139.1413  166.6229 C.ar    1  UNL1        0.0091
      3 C         139.5063  139.7311  167.5310 C.ar    1  UNL1        0.0114
      4 C         140.3654  140.6521  166.7164 C.ar    1  UNL1        0.1020
      5 C         139.8584  140.6314  165.3048 C.ar    1  UNL1        0.0857
      6 S         138.6859  139.6977  165.2471 S.2     1  UNL1       -0.0764
      7 N         140.3774  141.3810  164.1137 N.pl3   1  UNL1       -0.3045
      8 C         141.5316  142.3362  164.0398 C.ar    1  UNL1        0.0923
      9 C         141.7144  142.8684  162.6494 C.ar    1  UNL1        0.0184
     10 C         142.8174  143.8423  162.3582 C.ar    1  UNL1        0.0015
     11 C         143.7377  144.2839  163.4573 C.ar    1  UNL1        0.0039
     12 C         143.5549  143.7517  164.8477 C.ar    1  UNL1        0.0479
     13 C         142.4519  142.7778  165.1390 C.ar    1  UNL1        0.2064
     14 N         142.4451  142.3733  166.5834 N.2     1  UNL1       -0.0388
     15 C         141.5166  141.4272  167.2855 C.2     1  UNL1        0.3256
     16 H         139.8970  141.2254  163.2685 H       1  UNL1        0.1528
     17 N         141.7732  141.2304  168.7501 N.pl3   1  UNL1       -0.1877
     18 C         142.6884  140.1348  169.2106 C.3     1  UNL1        0.2195
     19 C         142.9451  139.9378  170.6753 C.3     1  UNL1        0.1202
     20 N         142.2864  140.8366  171.6796 N.3     1  UNL1       -0.2906
     21 C         141.3712  141.9322  171.2191 C.3     1  UNL1        0.1202
     22 C         141.1146  142.1291  169.7544 C.3     1  UNL1        0.2195
     23 H         143.0343  141.2817  172.2115 H       1  UNL1        0.1235
@<TRIPOS>BOND
     1     1     2    1
     2     2     3   ar
     3     3     4   ar
     4     4     5   ar
     5     5     6   ar
     6     5     7    1
     7     7     8    1
     8     8     9   ar
     9     9    10   ar
    10    10    11   ar
    11    11    12   ar
    12    12    13   ar
    13    13    14    1
    14    14    15    2
    15    15    17    1
    16    17    18    1
    17    18    19    1
    18    19    20    1
    19    20    21    1
    20    21    22    1
    21     6     2   ar
    22    13     8   ar
    23    22    17    1
    24    15     4    1
    25     7    16    1
    26    20    23    1
@<TRIPOS>MOLECULE
*****
 23 26 0 0 0
SMALL
GASTEIGER

@<TRIPOS>ATOM
      1 C         137.3470  137.9366  166.9891 C.3     1  UNL1        0.0382
      2 C         138.5393  138.7793  166.6454 C.ar    1  UNL1        0.0091
      3 C         139.2765  139.6885  167.5834 C.ar    1  UNL1        0.0114
      4 C         140.3966  140.3318  166.8209 C.ar    1  UNL1        0.1020
      5 C         140.3518  139.8201  165.4116 C.ar    1  UNL1        0.0857
      6 S         139.2039  138.8607  165.3031 S.2     1  UNL1       -0.0764
      7 N         141.2561  140.1600  164.2641 N.pl3   1  UNL1       -0.3045
      8 C         142.4286  141.0954  164.2425 C.ar    1  UNL1        0.0923
      9 C         143.0632  141.1473  162.8844 C.ar    1  UNL1        0.0184
     10 C         144.2556  142.0258  162.6469 C.ar    1  UNL1        0.0015
     11 C         144.8133  142.8524  163.7675 C.ar    1  UNL1        0.0039
     12 C         144.1787  142.8004  165.1256 C.ar    1  UNL1        0.0479
     13 C         142.9863  141.9219  165.3631 C.ar    1  UNL1        0.2064
     14 N         142.5093  142.0172  166.7820 N.2     1  UNL1       -0.0388
     15 C         141.3568  141.3096  167.4309 C.2     1  UNL1        0.3256
     16 H         141.0533  139.7096  163.4125 H       1  UNL1        0.1528
     17 N         141.1351  141.6209  168.8813 N.pl3   1  UNL1       -0.1877
     18 C         141.8505  140.8298  169.9360 C.3     1  UNL1        0.2195
     19 C         141.6289  141.1410  171.3866 C.3     1  UNL1        0.1202
     20 N         140.6918  142.2434  171.7824 N.3     1  UNL1       -0.2906
     21 C         139.9764  143.0345  170.7277 C.3     1  UNL1        0.1202
     22 C         140.1981  142.7233  169.2772 C.3     1  UNL1        0.2195
     23 H         141.2356  142.9091  172.3316 H       1  UNL1        0.1235
@<TRIPOS>BOND
     1     1     2    1
     2     2     3   ar
     3     3     4   ar
     4     4     5   ar
     5     5     6   ar
     6     5     7    1
     7     7     8    1
     8     8     9   ar
     9     9    10   ar
    10    10    11   ar
    11    11    12   ar
    12    12    13   ar
    13    13    14    1
    14    14    15    2
    15    15    17    1
    16    17    18    1
    17    18    19    1
    18    19    20    1
    19    20    21    1
    20    21    22    1
    21     6     2   ar
    22    13     8   ar
    23    22    17    1
    24    15     4    1
    25     7    16    1
    26    20    23    1
@<TRIPOS>MOLECULE
*****
 23 26 0 0 0
SMALL
GASTEIGER

@<TRIPOS>ATOM
      1 C         144.1502  137.6485  166.6496 C.3     1  UNL1        0.0382
      2 C         143.1914  138.7659  166.3629 C.ar    1  UNL1        0.0091
      3 C         142.7023  139.7834  167.3506 C.ar    1  UNL1        0.0114
      4 C         141.7621  140.7083  166.6362 C.ar    1  UNL1        0.1020
      5 C         141.6701  140.2626  165.2069 C.ar    1  UNL1        0.0857
      6 S         142.5535  139.0621  165.0380 S.2     1  UNL1       -0.0764
      7 N         140.8632  140.8583  164.0916 N.pl3   1  UNL1       -0.3045
      8 C         139.9489  142.0469  164.1300 C.ar    1  UNL1        0.0923
      9 C         139.3329  142.3081  162.7876 C.ar    1  UNL1        0.0184
     10 C         138.3837  143.4557  162.6084 C.ar    1  UNL1        0.0015
     11 C         138.0507  144.3421  163.7718 C.ar    1  UNL1        0.0039
     12 C         138.6667  144.0809  165.1142 C.ar    1  UNL1        0.0479
     13 C         139.6159  142.9334  165.2933 C.ar    1  UNL1        0.2064
     14 N         140.1148  142.8501  166.7055 N.2     1  UNL1       -0.0388
     15 C         141.0699  141.8599  167.3032 C.2     1  UNL1        0.3256
     16 H         140.9443  140.4099  163.2189 H       1  UNL1        0.1528
     17 N         141.3729  142.0458  168.7604 N.pl3   1  UNL1       -0.1877
     18 C         142.6412  142.7269  169.1818 C.3     1  UNL1        0.2195
     19 C         142.9443  142.9128  170.6390 C.3     1  UNL1        0.1202
     20 N         141.9790  142.4176  171.6749 N.3     1  UNL1       -0.2906
     21 C         140.7107  141.7365  171.2536 C.3     1  UNL1        0.1202
     22 C         140.4076  141.5506  169.7963 C.3     1  UNL1        0.2195
     23 H         141.7072  143.2260  172.2345 H       1  UNL1        0.1235
@<TRIPOS>BOND
     1     1     2    1
     2     2     3   ar
     3     3     4   ar
     4     4     5   ar
     5     5     6   ar
     6     5     7    1
     7     7     8    1
     8     8     9   ar
     9     9    10   ar
    10    10    11   ar
    11    11    12   ar
    12    12    13   ar
    13    13    14    1
    14    14    15    2
    15    15    17    1
    16    17    18    1
    17    18    19    1
    18    19    20    1
    19    20    21    1
    20    21    22    1
    21     6     2   ar
    22    13     8   ar
    23    22    17    1
    24    15     4    1
    25     7    16    1
    26    20    23    1
@<TRIPOS>MOLECULE
*****
 23 26 0 0 0
SMALL
GASTEIGER

@<TRIPOS>ATOM
      1 C         144.6477  143.2146  162.0660 C.3     1  UNL1        0.0382
      2 C         143.8758  143.0544  163.3421 C.ar    1  UNL1        0.0091
      3 C         142.3824  143.0860  163.4792 C.ar    1  UNL1        0.0114
      4 C         142.0455  142.8856  164.9270 C.ar    1  UNL1        0.1020
      5 C         143.3307  142.7302  165.6848 C.ar    1  UNL1        0.0857
      6 S         144.4618  142.8345  164.7053 S.2     1  UNL1       -0.0764
      7 N         143.5284  142.5080  167.1550 N.pl3   1  UNL1       -0.3045
      8 C         142.4899  142.3864  168.2306 C.ar    1  UNL1        0.0923
      9 C         143.1170  142.1677  169.5756 C.ar    1  UNL1        0.0184
     10 C         142.2512  142.0196  170.7915 C.ar    1  UNL1        0.0015
     11 C         140.7585  142.0901  170.6624 C.ar    1  UNL1        0.0039
     12 C         140.1314  142.3087  169.3175 C.ar    1  UNL1        0.0479
     13 C         140.9972  142.4569  168.1016 C.ar    1  UNL1        0.2064
     14 N         140.1742  142.6664  166.8651 N.2     1  UNL1       -0.0388
     15 C         140.6407  142.8572  165.4523 C.2     1  UNL1        0.3256
     16 H         144.4635  142.4319  167.4535 H       1  UNL1        0.1528
     17 N         139.5595  143.0444  164.4296 N.pl3   1  UNL1       -0.1877
     18 C         138.8645  141.8502  163.8458 C.3     1  UNL1        0.2195
     19 C         137.7833  142.0374  162.8230 C.3     1  UNL1        0.1202
     20 N         137.3972  143.4188  162.3840 N.3     1  UNL1       -0.2906
     21 C         138.0922  144.6130  162.9678 C.3     1  UNL1        0.1202
     22 C         139.1734  144.4259  163.9906 C.3     1  UNL1        0.2195
     23 H         136.4040  143.5264  162.5900 H       1  UNL1        0.1235
@<TRIPOS>BOND
     1     1     2    1
     2     2     3   ar
     3     3     4   ar
     4     4     5   ar
     5     5     6   ar
     6     5     7    1
     7     7     8    1
     8     8     9   ar
     9     9    10   ar
    10    10    11   ar
    11    11    12   ar
    12    12    13   ar
    13    13    14    1
    14    14    15    2
    15    15    17    1
    16    17    18    1
    17    18    19    1
    18    19    20    1
    19    20    21    1
    20    21    22    1
    21     6     2   ar
    22    13     8   ar
    23    22    17    1
    24    15     4    1
    25     7    16    1
    26    20    23    1
@<TRIPOS>MOLECULE
*****
 23 26 0 0 0
SMALL
GASTEIGER

@<TRIPOS>ATOM
      1 C         140.7957  137.9618  161.9116 C.3     1  UNL1        0.0382
      2 C         140.7366  138.8488  163.1198 C.ar    1  UNL1        0.0091
      3 C         141.1882  140.2776  163.1877 C.ar    1  UNL1        0.0114
      4 C         140.9461  140.7745  164.5821 C.ar    1  UNL1        0.1020
      5 C         140.3449  139.6528  165.3760 C.ar    1  UNL1        0.0857
      6 S         140.2154  138.4627  164.4723 S.2     1  UNL1       -0.0764
      7 N         139.9238  139.6470  166.8157 N.pl3   1  UNL1       -0.3045
      8 C         139.9998  140.7613  167.8170 C.ar    1  UNL1        0.0923
      9 C         139.4697  140.3342  169.1536 C.ar    1  UNL1        0.0184
     10 C         139.4557  141.3026  170.2990 C.ar    1  UNL1        0.0015
     11 C         139.9717  142.6980  170.1079 C.ar    1  UNL1        0.0039
     12 C         140.5018  143.1251  168.7713 C.ar    1  UNL1        0.0479
     13 C         140.5159  142.1568  167.6259 C.ar    1  UNL1        0.2064
     14 N         141.0833  142.7824  166.3862 N.2     1  UNL1       -0.0388
     15 C         141.2748  142.1674  165.0316 C.2     1  UNL1        0.3256
     16 H         139.5477  138.7998  167.1473 H       1  UNL1        0.1528
     17 N         141.8741  143.0635  163.9887 N.pl3   1  UNL1       -0.1877
     18 C         140.9837  143.8843  163.1036 C.3     1  UNL1        0.2195
     19 C         141.5830  144.7805  162.0607 C.3     1  UNL1        0.1202
     20 N         143.0728  144.8558  161.9029 N.3     1  UNL1       -0.2906
     21 C         143.9632  144.0350  162.7880 C.3     1  UNL1        0.1202
     22 C         143.3639  143.1388  163.8309 C.3     1  UNL1        0.2195
     23 H         143.3350  145.8312  162.0447 H       1  UNL1        0.1235
@<TRIPOS>BOND
     1     1     2    1
     2     2     3   ar
     3     3     4   ar
     4     4     5   ar
     5     5     6   ar
     6     5     7    1
     7     7     8    1
     8     8     9   ar
     9     9    10   ar
    10    10    11   ar
    11    11    12   ar
    12    12    13   ar
    13    13    14    1
    14    14    15    2
    15    15    17    1
    16    17    18    1
    17    18    19    1
    18    19    20    1
    19    20    21    1
    20    21    22    1
    21     6     2   ar
    22    13     8   ar
    23    22    17    1
    24    15     4    1
    25     7    16    1
    26    20    23    1
@<TRIPOS>MOLECULE
*****
 23 26 0 0 0
SMALL
GASTEIGER

@<TRIPOS>ATOM
      1 C         141.6664  137.9869  161.7314 C.3     1  UNL1        0.0382
      2 C         141.9048  138.7172  163.0197 C.ar    1  UNL1        0.0091
      3 C         142.1860  140.1837  163.1630 C.ar    1  UNL1        0.0114
      4 C         142.3589  140.4819  164.6229 C.ar    1  UNL1        0.1020
      5 C         142.1845  139.1998  165.3818 C.ar    1  UNL1        0.0857
      6 S         141.9039  138.1092  164.3910 S.2     1  UNL1       -0.0764
      7 N         142.2623  138.9715  166.8622 N.pl3   1  UNL1       -0.3045
      8 C         142.5335  139.9687  167.9495 C.ar    1  UNL1        0.0923
      9 C         142.5238  139.3208  169.3023 C.ar    1  UNL1        0.0184
     10 C         142.7746  140.1448  170.5303 C.ar    1  UNL1        0.0015
     11 C         143.0351  141.6167  170.4055 C.ar    1  UNL1        0.0039
     12 C         143.0448  142.2646  169.0527 C.ar    1  UNL1        0.0479
     13 C         142.7940  141.4406  167.8247 C.ar    1  UNL1        0.2064
     14 N         142.8476  142.2788  166.5819 N.2     1  UNL1       -0.0388
     15 C         142.6540  141.8523  165.1569 C.2     1  UNL1        0.3256
     16 H         142.1159  138.0445  167.1597 H       1  UNL1        0.1528
     17 N         142.7709  142.9396  164.1304 N.pl3   1  UNL1       -0.1877
     18 C         144.1110  143.2826  163.5504 C.3     1  UNL1        0.2195
     19 C         144.2280  144.3700  162.5238 C.3     1  UNL1        0.1202
     20 N         143.0046  145.1144  162.0772 N.3     1  UNL1       -0.2906
     21 C         141.6645  144.7715  162.6571 C.3     1  UNL1        0.1202
     22 C         141.5475  143.6840  163.6837 C.3     1  UNL1        0.2195
     23 H         142.9315  144.9823  161.0684 H       1  UNL1        0.1235
@<TRIPOS>BOND
     1     1     2    1
     2     2     3   ar
     3     3     4   ar
     4     4     5   ar
     5     5     6   ar
     6     5     7    1
     7     7     8    1
     8     8     9   ar
     9     9    10   ar
    10    10    11   ar
    11    11    12   ar
    12    12    13   ar
    13    13    14    1
    14    14    15    2
    15    15    17    1
    16    17    18    1
    17    18    19    1
    18    19    20    1
    19    20    21    1
    20    21    22    1
    21     6     2   ar
    22    13     8   ar
    23    22    17    1
    24    15     4    1
    25     7    16    1
    26    20    23    1
@<TRIPOS>MOLECULE
*****
 23 26 0 0 0
SMALL
GASTEIGER

@<TRIPOS>ATOM
      1 C         143.6350  142.2752  169.3826 C.3     1  UNL1        0.0382
      2 C         142.9144  141.7249  168.1877 C.ar    1  UNL1        0.0091
      3 C         142.9078  142.3199  166.8107 C.ar    1  UNL1        0.0114
      4 C         142.0631  141.4456  165.9320 C.ar    1  UNL1        0.1020
      5 C         141.5476  140.3103  166.7659 C.ar    1  UNL1        0.0857
      6 S         142.0737  140.4829  168.1599 S.2     1  UNL1       -0.0764
      7 N         140.6628  139.1722  166.3515 N.pl3   1  UNL1       -0.3045
      8 C         140.0749  138.8882  165.0010 C.ar    1  UNL1        0.0923
      9 C         139.2430  137.6401  165.0169 C.ar    1  UNL1        0.0184
     10 C         138.5629  137.1762  163.7630 C.ar    1  UNL1        0.0015
     11 C         138.7147  137.9603  162.4933 C.ar    1  UNL1        0.0039
     12 C         139.5466  139.2084  162.4775 C.ar    1  UNL1        0.0479
     13 C         140.2267  139.6723  163.7313 C.ar    1  UNL1        0.2064
     14 N         141.0038  140.9340  163.4986 N.2     1  UNL1       -0.0388
     15 C         141.8211  141.7233  164.4779 C.2     1  UNL1        0.3256
     16 H         140.4382  138.5261  167.0596 H       1  UNL1        0.1528
     17 N         142.4840  142.9526  163.9309 N.pl3   1  UNL1       -0.1877
     18 C         143.7752  142.8357  163.1765 C.3     1  UNL1        0.2195
     19 C         144.4382  144.0650  162.6294 C.3     1  UNL1        0.1202
     20 N         143.8099  145.4113  162.8369 N.3     1  UNL1       -0.2906
     21 C         142.5187  145.5281  163.5913 C.3     1  UNL1        0.1202
     22 C         141.8557  144.2988  164.1383 C.3     1  UNL1        0.2195
     23 H         143.6464  145.8058  161.9106 H       1  UNL1        0.1235
@<TRIPOS>BOND
     1     1     2    1
     2     2     3   ar
     3     3     4   ar
     4     4     5   ar
     5     5     6   ar
     6     5     7    1
     7     7     8    1
     8     8     9   ar
     9     9    10   ar
    10    10    11   ar
    11    11    12   ar
    12    12    13   ar
    13    13    14    1
    14    14    15    2
    15    15    17    1
    16    17    18    1
    17    18    19    1
    18    19    20    1
    19    20    21    1
    20    21    22    1
    21     6     2   ar
    22    13     8   ar
    23    22    17    1
    24    15     4    1
    25     7    16    1
    26    20    23    1
@<TRIPOS>MOLECULE
*****
 23 26 0 0 0
SMALL
GASTEIGER

@<TRIPOS>ATOM
      1 C         143.0962  138.3383  162.3780 C.3     1  UNL1        0.0382
      2 C         142.6644  139.1957  163.5304 C.ar    1  UNL1        0.0091
      3 C         141.5344  140.1822  163.5207 C.ar    1  UNL1        0.0114
      4 C         141.4584  140.8134  164.8793 C.ar    1  UNL1        0.1020
      5 C         142.5414  140.2170  165.7287 C.ar    1  UNL1        0.0857
      6 S         143.2867  139.2173  164.8951 S.2     1  UNL1       -0.0764
      7 N         142.8790  140.5157  167.1594 N.pl3   1  UNL1       -0.3045
      8 C         142.2170  141.4843  168.0941 C.ar    1  UNL1        0.0923
      9 C         142.8686  141.4746  169.4451 C.ar    1  UNL1        0.0184
     10 C         142.3570  142.3743  170.5309 C.ar    1  UNL1        0.0015
     11 C         141.1939  143.2835  170.2656 C.ar    1  UNL1        0.0039
     12 C         140.5424  143.2932  168.9146 C.ar    1  UNL1        0.0479
     13 C         141.0539  142.3936  167.8288 C.ar    1  UNL1        0.2064
     14 N         140.2655  142.5588  166.5634 N.2     1  UNL1       -0.0388
     15 C         140.4455  141.8556  165.2507 C.2     1  UNL1        0.3256
     16 H         143.6350  140.0089  167.5346 H       1  UNL1        0.1528
     17 N         139.4858  142.2461  164.1662 N.pl3   1  UNL1       -0.1877
     18 C         139.8077  143.3957  163.2580 C.3     1  UNL1        0.2195
     19 C         138.8480  143.7863  162.1734 C.3     1  UNL1        0.1202
     20 N         137.5662  143.0272  161.9970 N.3     1  UNL1       -0.2906
     21 C         137.2443  141.8776  162.9052 C.3     1  UNL1        0.1202
     22 C         138.2040  141.4870  163.9898 C.3     1  UNL1        0.2195
     23 H         137.5707  142.6587  161.0459 H       1  UNL1        0.1235
@<TRIPOS>BOND
     1     1     2    1
     2     2     3   ar
     3     3     4   ar
     4     4     5   ar
     5     5     6   ar
     6     5     7    1
     7     7     8    1
     8     8     9   ar
     9     9    10   ar
    10    10    11   ar
    11    11    12   ar
    12    12    13   ar
    13    13    14    1
    14    14    15    2
    15    15    17    1
    16    17    18    1
    17    18    19    1
    18    19    20    1
    19    20    21    1
    20    21    22    1
    21     6     2   ar
    22    13     8   ar
    23    22    17    1
    24    15     4    1
    25     7    16    1
    26    20    23    1
@<TRIPOS>MOLECULE
*****
 23 26 0 0 0
SMALL
GASTEIGER

@<TRIPOS>ATOM
      1 C         144.9157  143.9966  165.7656 C.3     1  UNL1        0.0382
      2 C         143.8849  142.9424  165.4897 C.ar    1  UNL1        0.0091
      3 C         143.1490  142.1377  166.5198 C.ar    1  UNL1        0.0114
      4 C         142.2183  141.2058  165.8019 C.ar    1  UNL1        0.1020
      5 C         142.3789  141.4347  164.3281 C.ar    1  UNL1        0.0857
      6 S         143.4089  142.5079  164.1352 S.2     1  UNL1       -0.0764
      7 N         141.6731  140.7531  163.1936 N.pl3   1  UNL1       -0.3045
      8 C         140.6324  139.6745  163.2524 C.ar    1  UNL1        0.0923
      9 C         140.1844  139.2697  161.8793 C.ar    1  UNL1        0.0184
     10 C         139.1445  138.2014  161.7142 C.ar    1  UNL1        0.0015
     11 C         138.5525  137.5379  162.9223 C.ar    1  UNL1        0.0039
     12 C         139.0005  137.9426  164.2954 C.ar    1  UNL1        0.0479
     13 C         140.0405  139.0109  164.4604 C.ar    1  UNL1        0.2064
     14 N         140.3431  139.2622  165.9079 N.2     1  UNL1       -0.0388
     15 C         141.3123  140.2390  166.5050 C.2     1  UNL1        0.3256
     16 H         141.9264  141.0535  162.2908 H       1  UNL1        0.1528
     17 N         141.3851  140.2505  168.0031 N.pl3   1  UNL1       -0.1877
     18 C         140.3763  141.0262  168.7971 C.3     1  UNL1        0.2195
     19 C         140.4491  141.0378  170.2953 C.3     1  UNL1        0.1202
     20 N         141.5309  140.2735  170.9995 N.3     1  UNL1       -0.2906
     21 C         142.5397  139.4977  170.2055 C.3     1  UNL1        0.1202
     22 C         142.4669  139.4862  168.7073 C.3     1  UNL1        0.2195
     23 H         141.0666  139.6073  171.6168 H       1  UNL1        0.1235
@<TRIPOS>BOND
     1     1     2    1
     2     2     3   ar
     3     3     4   ar
     4     4     5   ar
     5     5     6   ar
     6     5     7    1
     7     7     8    1
     8     8     9   ar
     9     9    10   ar
    10    10    11   ar
    11    11    12   ar
    12    12    13   ar
    13    13    14    1
    14    14    15    2
    15    15    17    1
    16    17    18    1
    17    18    19    1
    18    19    20    1
    19    20    21    1
    20    21    22    1
    21     6     2   ar
    22    13     8   ar
    23    22    17    1
    24    15     4    1
    25     7    16    1
    26    20    23    1
