@<TRIPOS>MOLECULE
*****
 13 14 0 0 0
SMALL
GASTEIGER

@<TRIPOS>ATOM
      1 C         140.5023  142.5564  169.1390 C.2     1  UNL1        0.0636
      2 C         139.9344  141.3381  169.8047 C.2     1  UNL1       -0.0213
      3 C         139.4563  140.1839  168.9745 C.3     1  UNL1        0.0419
      4 C         139.6150  140.4043  167.4893 C.3     1  UNL1        0.0622
      5 C         139.8870  140.8886  166.0960 C.3     1  UNL1        0.0180
      6 C         140.4910  142.2583  166.1910 C.3     1  UNL1        0.0221
      7 C         140.5922  142.6206  167.6431 C.3     1  UNL1        0.0862
      8 N         140.0508  141.4747  168.4455 N.3     1  UNL1       -0.2699
      9 C         139.9268  141.2655  169.2047 C.3     1  UNL1        0.0898
     10 C         140.9804  143.7106  169.9693 C.2     1  UNL1        0.3382
     11 O         140.0414  144.8299  170.3090 O.2     1  UNL1       -0.2452
     12 C         143.3495  142.6498  170.0810 C.3     1  UNL1        0.2559
     13 O         142.3976  143.7455  170.4598 O.3     1  UNL1       -0.4415
@<TRIPOS>BOND
     1    12    13    1
     2    13    10    1
     3    10    11    2
     4    10     1    1
     5     1     2    2
     6     2     3    1
     7     4     3    1
     8     4     5    1
     9     5     6    1
    10     7     6    1
    11     7     8    1
    12     8     9    1
    13     7     1    1
    14     8     4    1
@<TRIPOS>MOLECULE
*****
 13 14 0 0 0
SMALL
GASTEIGER

@<TRIPOS>ATOM
      1 C         140.1475  140.2401  169.1922 C.2     1  UNL1        0.0636
      2 C         141.4504  139.7697  169.7675 C.2     1  UNL1       -0.0213
      3 C         142.5688  139.3606  168.8555 C.3     1  UNL1        0.0419
      4 C         142.2248  139.4799  167.3903 C.3     1  UNL1        0.0622
      5 C         141.6173  139.6952  166.0358 C.3     1  UNL1        0.0180
      6 C         140.2194  140.2030  166.2303 C.3     1  UNL1        0.0221
      7 C         139.9629  140.3015  167.7049 C.3     1  UNL1        0.0862
      8 N         141.2023  139.8546  168.4218 N.3     1  UNL1       -0.2699
      9 C         141.4773  139.7577  169.1638 C.3     1  UNL1        0.0898
     10 C         139.0291  140.6492  170.1042 C.2     1  UNL1        0.3382
     11 O         137.9081  139.6947  170.3912 O.2     1  UNL1       -0.2452
     12 C         140.0193  143.0453  170.2728 C.3     1  UNL1        0.2559
     13 O         139.0316  142.0128  170.7294 O.3     1  UNL1       -0.4415
@<TRIPOS>BOND
     1    12    13    1
     2    13    10    1
     3    10    11    2
     4    10     1    1
     5     1     2    2
     6     2     3    1
     7     4     3    1
     8     4     5    1
     9     5     6    1
    10     7     6    1
    11     7     8    1
    12     8     9    1
    13     7     1    1
    14     8     4    1
@<TRIPOS>MOLECULE
*****
 13 14 0 0 0
SMALL
GASTEIGER

@<TRIPOS>ATOM
      1 C         140.1095  140.1162  168.8154 C.2     1  UNL1        0.0636
      2 C         139.1581  140.0749  167.6564 C.2     1  UNL1       -0.0213
      3 C         139.6587  139.7217  166.2873 C.3     1  UNL1        0.0419
      4 C         141.1405  139.4358  166.2435 C.3     1  UNL1        0.0622
      5 C         142.6019  139.2096  166.4945 C.3     1  UNL1        0.0180
      6 C         142.8621  139.4373  167.9541 C.3     1  UNL1        0.0221
      7 C         141.5616  139.8043  168.6051 C.3     1  UNL1        0.0862
      8 N         140.4975  139.8034  167.5479 N.3     1  UNL1       -0.2699
      9 C         139.7152  139.9349  167.4686 C.3     1  UNL1        0.0898
     10 C         139.6088  140.4694  170.1845 C.2     1  UNL1        0.3382
     11 O         139.2806  139.3838  171.1662 O.2     1  UNL1       -0.2452
     12 C         140.2100  142.9756  169.8562 C.3     1  UNL1        0.2559
     13 O         139.4364  141.9082  170.5720 O.3     1  UNL1       -0.4415
@<TRIPOS>BOND
     1    12    13    1
     2    13    10    1
     3    10    11    2
     4    10     1    1
     5     1     2    2
     6     2     3    1
     7     4     3    1
     8     4     5    1
     9     5     6    1
    10     7     6    1
    11     7     8    1
    12     8     9    1
    13     7     1    1
    14     8     4    1
@<TRIPOS>MOLECULE
*****
 13 14 0 0 0
SMALL
GASTEIGER

@<TRIPOS>ATOM
      1 C         139.6823  140.4948  168.2348 C.2     1  UNL1        0.0636
      2 C         140.4029  141.5538  167.4542 C.2     1  UNL1       -0.0213
      3 C         140.2280  141.6389  165.9669 C.3     1  UNL1        0.0419
      4 C         139.2965  140.5897  165.4094 C.3     1  UNL1        0.0622
      5 C         138.3475  139.4593  165.1418 C.3     1  UNL1        0.0180
      6 C         138.0324  138.7988  166.4512 C.3     1  UNL1        0.0221
      7 C         138.7868  139.5209  167.5280 C.3     1  UNL1        0.0862
      8 N         139.5680  140.6278  166.8842 N.3     1  UNL1       -0.2699
      9 C         140.0703  141.2149  167.0803 C.3     1  UNL1        0.0898
     10 C         139.8572  140.4097  169.7221 C.2     1  UNL1        0.3382
     11 O         139.1204  141.3594  170.6195 O.2     1  UNL1       -0.2452
     12 C         142.1985  139.2926  169.8652 C.3     1  UNL1        0.2559
     13 O         140.7690  139.3750  170.3121 O.3     1  UNL1       -0.4415
@<TRIPOS>BOND
     1    12    13    1
     2    13    10    1
     3    10    11    2
     4    10     1    1
     5     1     2    2
     6     2     3    1
     7     4     3    1
     8     4     5    1
     9     5     6    1
    10     7     6    1
    11     7     8    1
    12     8     9    1
    13     7     1    1
    14     8     4    1
@<TRIPOS>MOLECULE
*****
 13 14 0 0 0
SMALL
GASTEIGER

@<TRIPOS>ATOM
      1 C         138.5436  139.0606  165.4481 C.2     1  UNL1        0.0636
      2 C         139.0171  137.7904  164.8059 C.2     1  UNL1       -0.0213
      3 C         138.9901  137.6495  163.3128 C.3     1  UNL1        0.0419
      4 C         138.4601  138.8717  162.6024 C.3     1  UNL1        0.0622
      5 C         137.9044  140.1974  162.1740 C.3     1  UNL1        0.0180
      6 C         137.6466  141.0121  163.4069 C.3     1  UNL1        0.0221
      7 C         138.0430  140.1898  164.5972 C.3     1  UNL1        0.0862
      8 N         138.5458  138.8670  164.1000 N.3     1  UNL1       -0.2699
      9 C         138.8371  138.1799  164.3803 C.3     1  UNL1        0.0898
     10 C         138.5706  139.2015  166.9412 C.2     1  UNL1        0.3382
     11 O         137.5360  138.5099  167.7787 O.2     1  UNL1       -0.2452
     12 C         139.6011  140.2568  169.0800 C.3     1  UNL1        0.2559
     13 O         139.6322  140.0340  167.5969 O.3     1  UNL1       -0.4415
@<TRIPOS>BOND
     1    12    13    1
     2    13    10    1
     3    10    11    2
     4    10     1    1
     5     1     2    2
     6     2     3    1
     7     4     3    1
     8     4     5    1
     9     5     6    1
    10     7     6    1
    11     7     8    1
    12     8     9    1
    13     7     1    1
    14     8     4    1
@<TRIPOS>MOLECULE
*****
 13 14 0 0 0
SMALL
GASTEIGER

@<TRIPOS>ATOM
      1 C         140.9584  142.6110  169.0200 C.2     1  UNL1        0.0636
      2 C         142.3914  142.4301  169.4248 C.2     1  UNL1       -0.0213
      3 C         143.4487  142.2433  168.3775 C.3     1  UNL1        0.0419
      4 C         142.9092  142.2617  166.9675 C.3     1  UNL1        0.0622
      5 C         142.1077  142.3217  165.7010 C.3     1  UNL1        0.0180
      6 C         140.6699  142.5340  166.0721 C.3     1  UNL1        0.0221
      7 C         140.5828  142.6052  167.5679 C.3     1  UNL1        0.0862
      8 N         141.9667  142.4369  168.1213 N.3     1  UNL1       -0.2699
      9 C         142.3453  142.4126  168.8224 C.3     1  UNL1        0.0898
     10 C         139.9010  142.7977  170.0674 C.2     1  UNL1        0.3382
     11 O         139.7204  144.1360  170.7206 O.2     1  UNL1       -0.2452
     12 C         139.5035  140.2381  170.2683 C.3     1  UNL1        0.2559
     13 O         139.0242  141.6463  170.4617 O.3     1  UNL1       -0.4415
@<TRIPOS>BOND
     1    12    13    1
     2    13    10    1
     3    10    11    2
     4    10     1    1
     5     1     2    2
     6     2     3    1
     7     4     3    1
     8     4     5    1
     9     5     6    1
    10     7     6    1
    11     7     8    1
    12     8     9    1
    13     7     1    1
    14     8     4    1
@<TRIPOS>MOLECULE
*****
 13 14 0 0 0
SMALL
GASTEIGER

@<TRIPOS>ATOM
      1 C         142.5782  140.0718  168.3409 C.2     1  UNL1        0.0636
      2 C         142.4972  141.5164  167.9450 C.2     1  UNL1       -0.0213
      3 C         142.7854  141.9237  166.5304 C.3     1  UNL1        0.0419
      4 C         143.1410  140.7645  165.6309 C.3     1  UNL1        0.0622
      5 C         143.4553  139.4477  164.9850 C.3     1  UNL1        0.0180
      6 C         143.3357  138.3786  166.0303 C.3     1  UNL1        0.0221
      7 C         142.9475  139.0346  167.3222 C.3     1  UNL1        0.0862
      8 N         142.8272  140.5093  167.0753 N.3     1  UNL1       -0.2699
      9 C         142.6522  141.1816  167.4662 C.3     1  UNL1        0.0898
     10 C         142.2900  139.6645  169.7554 C.2     1  UNL1        0.3382
     11 O         143.4036  139.5972  170.7582 O.2     1  UNL1       -0.2452
     12 C         139.8331  140.3905  170.1877 C.3     1  UNL1        0.2559
     13 O         140.8883  139.3245  170.1672 O.3     1  UNL1       -0.4415
@<TRIPOS>BOND
     1    12    13    1
     2    13    10    1
     3    10    11    2
     4    10     1    1
     5     1     2    2
     6     2     3    1
     7     4     3    1
     8     4     5    1
     9     5     6    1
    10     7     6    1
    11     7     8    1
    12     8     9    1
    13     7     1    1
    14     8     4    1
@<TRIPOS>MOLECULE
*****
 13 14 0 0 0
SMALL
GASTEIGER

@<TRIPOS>ATOM
      1 C         139.6239  140.4871  168.1837 C.2     1  UNL1        0.0636
      2 C         138.9783  139.4450  167.3192 C.2     1  UNL1       -0.0213
      3 C         138.9976  139.5918  165.8265 C.3     1  UNL1        0.0419
      4 C         139.7039  140.8395  165.3535 C.3     1  UNL1        0.0622
      5 C         140.4481  142.1298  165.1766 C.3     1  UNL1        0.0180
      6 C         140.8096  142.6467  166.5375 C.3     1  UNL1        0.0221
      7 C         140.2889  141.6758  167.5555 C.3     1  UNL1        0.0862
      8 N         139.6055  140.5589  166.8237 N.3     1  UNL1       -0.2699
      9 C         139.2161  139.8795  166.9727 C.3     1  UNL1        0.0898
     10 C         139.6046  140.3403  169.6763 C.2     1  UNL1        0.3382
     11 O         138.6170  141.1191  170.4938 O.2     1  UNL1       -0.2452
     12 C         142.0033  139.3679  169.9022 C.3     1  UNL1        0.2559
     13 O         140.5729  139.4149  170.3516 O.3     1  UNL1       -0.4415
@<TRIPOS>BOND
     1    12    13    1
     2    13    10    1
     3    10    11    2
     4    10     1    1
     5     1     2    2
     6     2     3    1
     7     4     3    1
     8     4     5    1
     9     5     6    1
    10     7     6    1
    11     7     8    1
    12     8     9    1
    13     7     1    1
    14     8     4    1
@<TRIPOS>MOLECULE
*****
 13 14 0 0 0
SMALL
GASTEIGER

@<TRIPOS>ATOM
      1 C         138.5990  139.5010  165.4041 C.2     1  UNL1        0.0636
      2 C         138.0590  140.7981  164.8787 C.2     1  UNL1       -0.0213
      3 C         137.7608  140.9490  163.4165 C.3     1  UNL1        0.0419
      4 C         138.0578  139.7074  162.6104 C.3     1  UNL1        0.0622
      5 C         138.4373  138.3590  162.0739 C.3     1  UNL1        0.0180
      6 C         138.9212  137.5231  163.2215 C.3     1  UNL1        0.0221
      7 C         138.8408  138.3548  164.4672 C.3     1  UNL1        0.0862
      8 N         138.3072  139.7048  164.0895 N.3     1  UNL1       -0.2699
      9 C         138.1203  140.4034  164.4251 C.3     1  UNL1        0.0898
     10 C         138.8972  139.3501  166.8664 C.2     1  UNL1        0.3382
     11 O         137.8608  138.7788  167.7881 O.2     1  UNL1       -0.2452
     12 C         141.2401  140.4117  166.5002 C.3     1  UNL1        0.2559
     13 O         140.2318  139.7705  167.4070 O.3     1  UNL1       -0.4415
@<TRIPOS>BOND
     1    12    13    1
     2    13    10    1
     3    10    11    2
     4    10     1    1
     5     1     2    2
     6     2     3    1
     7     4     3    1
     8     4     5    1
     9     5     6    1
    10     7     6    1
    11     7     8    1
    12     8     9    1
    13     7     1    1
    14     8     4    1
