@<TRIPOS>MOLECULE
*****
 30 34 0 0 0
SMALL
GASTEIGER

@<TRIPOS>ATOM
      1 C         139.6085  140.3731  166.9810 C.ar    1  UNL1        0.0015
      2 C         139.6740  138.8949  166.7343 C.ar    1  UNL1        0.0031
      3 C         139.2452  138.3358  165.4101 C.ar    1  UNL1        0.0366
      4 C         138.7508  139.2548  164.3326 C.ar    1  UNL1        0.1360
      5 C         138.6853  140.7329  164.5793 C.ar    1  UNL1        0.0357
      6 C         139.1141  141.2921  165.9035 C.ar    1  UNL1        0.0007
      7 C         138.1909  141.6519  163.5018 C.3     1  UNL1        0.1580
      8 C         137.7212  142.6888  162.5250 C.3     1  UNL1        0.2351
      9 O         137.8235  144.0305  163.1881 O.2     1  UNL1       -0.4478
     10 C         138.3566  143.8227  164.5747 C.2     1  UNL1        0.2770
     11 N         138.6168  144.8964  165.5893 N.pl3   1  UNL1       -0.3133
     12 N         138.5836  142.3527  164.7686 N.2     1  UNL1       -0.2202
     13 C         137.7621  141.0928  162.1776 C.3     1  UNL1        0.1141
     14 C         137.9000  140.8364  162.4782 C.3     1  UNL1        0.1501
     15 O         137.7550  141.1059  162.1622 O.3     1  UNL1       -0.3532
     16 C         137.9000  140.8364  162.4782 C.3     1  UNL1        0.1501
     17 C         137.8276  139.6147  161.9310 C.3     1  UNL1        0.1398
     18 C         137.7068  138.2969  161.2248 C.3     1  UNL1        0.0438
     19 C         137.2913  140.0760  160.6082 C.3     1  UNL1        0.0438
     20 O         138.3220  138.6957  163.0085 O.3     1  UNL1       -0.4826
     21 H         138.4353  145.8381  165.3670 H       1  UNL1        0.1466
     22 H         138.9692  144.6593  166.4774 H       1  UNL1        0.1466
     23 C         141.6934  142.3491  169.7193 C.ar    1  UNL1        0.1578
     24 C         140.8951  142.0504  170.9536 C.ar    1  UNL1        0.1356
     25 N         139.6679  141.1926  170.8637 N.ar    1  UNL1       -0.2391
     26 C         139.2390  140.6334  169.5395 C.ar    1  UNL1        0.0991
     27 C         140.0373  140.9321  168.3052 C.ar    1  UNL1        0.0222
     28 C         141.2646  141.7900  168.3952 C.ar    1  UNL1        0.0401
     29 C         144.2714  142.5708  169.9540 C.3     1  UNL1        0.2525
     30 O         142.9206  143.2069  169.8092 O.3     1  UNL1       -0.4699
@<TRIPOS>BOND
     1    29    30    1
     2    30    23    1
     3    23    24   ar
     4    24    25   ar
     5    25    26   ar
     6    26    27   ar
     7    27     1    1
     8     1     2   ar
     9     2     3   ar
    10     3     4   ar
    11     4     5   ar
    12     5     6   ar
    13     5     7    1
    14     7     8    1
    15     8     9    1
    16     9    10    1
    17    10    11    1
    18    10    12    2
    19     7    13    1
    20    13    14    1
    21    14    15    1
    22    15    16    1
    23    13    17    1
    24    17    18    1
    25    17    19    1
    26    17    20    1
    27    27    28   ar
    28    28    23   ar
    29     6     1   ar
    30    12     7    1
    31    16    13    1
    32    20     4    1
    33    11    21    1
    34    11    22    1
@<TRIPOS>MOLECULE
*****
 30 34 0 0 0
SMALL
GASTEIGER

@<TRIPOS>ATOM
      1 C         142.9693  142.0017  165.1421 C.ar    1  UNL1        0.0015
      2 C         143.6430  142.5987  166.3420 C.ar    1  UNL1        0.0031
      3 C         143.0608  142.3927  167.7090 C.ar    1  UNL1        0.0366
      4 C         141.8049  141.5898  167.8760 C.ar    1  UNL1        0.1360
      5 C         141.1311  140.9928  166.6762 C.ar    1  UNL1        0.0357
      6 C         141.7133  141.1988  165.3091 C.ar    1  UNL1        0.0007
      7 C         139.8752  140.1899  166.8433 C.3     1  UNL1        0.1580
      8 C         138.6206  139.3677  166.8545 C.3     1  UNL1        0.2351
      9 O         138.3078  138.9800  165.4396 O.2     1  UNL1       -0.4478
     10 C         139.3690  139.5625  164.5539 C.2     1  UNL1        0.2770
     11 N         139.4477  139.4219  163.0627 N.pl3   1  UNL1       -0.3133
     12 N         140.3377  140.3102  165.4214 N.2     1  UNL1       -0.2202
     13 C         139.2930  139.9839  168.2102 C.3     1  UNL1        0.1141
     14 C         139.6434  140.2079  168.1636 C.3     1  UNL1        0.1501
     15 O         139.2751  139.9724  168.2126 O.3     1  UNL1       -0.3532
     16 C         139.6434  140.2079  168.1636 C.3     1  UNL1        0.1501
     17 C         139.9667  140.5808  169.4100 C.3     1  UNL1        0.1398
     18 C         140.2368  140.9425  170.8405 C.3     1  UNL1        0.0438
     19 C         138.8045  139.9035  170.0740 C.3     1  UNL1        0.0438
     20 O         141.2226  141.3838  169.2430 O.3     1  UNL1       -0.4826
     21 H         138.7604  138.9085  162.5796 H       1  UNL1        0.1466
     22 H         140.1866  139.8431  162.5669 H       1  UNL1        0.1466
     23 C         143.4211  143.2801  161.4123 C.ar    1  UNL1        0.1578
     24 C         144.7159  142.6198  161.0412 C.ar    1  UNL1        0.1356
     25 N         145.4284  141.7535  162.0370 N.ar    1  UNL1       -0.2391
     26 C         144.8462  141.5474  163.4041 C.ar    1  UNL1        0.0991
     27 C         143.5515  142.2077  163.7751 C.ar    1  UNL1        0.0222
     28 C         142.8389  143.0741  162.7792 C.ar    1  UNL1        0.0401
     29 C         141.3826  144.7550  160.7648 C.3     1  UNL1        0.2525
     30 O         142.7086  144.1464  160.4164 O.3     1  UNL1       -0.4699
@<TRIPOS>BOND
     1    29    30    1
     2    30    23    1
     3    23    24   ar
     4    24    25   ar
     5    25    26   ar
     6    26    27   ar
     7    27     1    1
     8     1     2   ar
     9     2     3   ar
    10     3     4   ar
    11     4     5   ar
    12     5     6   ar
    13     5     7    1
    14     7     8    1
    15     8     9    1
    16     9    10    1
    17    10    11    1
    18    10    12    2
    19     7    13    1
    20    13    14    1
    21    14    15    1
    22    15    16    1
    23    13    17    1
    24    17    18    1
    25    17    19    1
    26    17    20    1
    27    27    28   ar
    28    28    23   ar
    29     6     1   ar
    30    12     7    1
    31    16    13    1
    32    20     4    1
    33    11    21    1
    34    11    22    1
@<TRIPOS>MOLECULE
*****
 30 34 0 0 0
SMALL
GASTEIGER

@<TRIPOS>ATOM
      1 C         140.3795  139.6722  167.1162 C.ar    1  UNL1        0.0015
      2 C         138.8803  139.6651  167.0647 C.ar    1  UNL1        0.0031
      3 C         138.1755  139.3404  165.7811 C.ar    1  UNL1        0.0366
      4 C         138.9697  139.0228  164.5489 C.ar    1  UNL1        0.1360
      5 C         140.4688  139.0298  164.6003 C.ar    1  UNL1        0.0357
      6 C         141.1737  139.3545  165.8840 C.ar    1  UNL1        0.0007
      7 C         141.2631  138.7121  163.3681 C.3     1  UNL1        0.1580
      8 C         142.1860  138.4162  162.2233 C.3     1  UNL1        0.2351
      9 O         143.5958  138.5375  162.7211 O.2     1  UNL1       -0.4478
     10 C         143.5443  138.9083  164.1736 C.2     1  UNL1        0.2770
     11 N         144.7266  139.1320  165.0689 N.pl3   1  UNL1       -0.3133
     12 N         142.1025  139.0163  164.5735 N.2     1  UNL1       -0.2202
     13 C         140.5582  138.3874  162.0845 C.3     1  UNL1        0.1141
     14 C         140.3366  138.4760  162.4283 C.3     1  UNL1        0.1501
     15 O         140.5696  138.3829  162.0669 O.3     1  UNL1       -0.3532
     16 C         140.3366  138.4760  162.4283 C.3     1  UNL1        0.1501
     17 C         139.0592  138.3804  162.0331 C.3     1  UNL1        0.1398
     18 C         137.6682  138.2469  161.4879 C.3     1  UNL1        0.0438
     19 C         139.3703  138.0163  160.6115 C.3     1  UNL1        0.0438
     20 O         138.2649  138.6981  163.2652 O.3     1  UNL1       -0.4826
     21 H         145.6393  139.0372  164.7120 H       1  UNL1        0.1466
     22 H         144.5901  139.3736  166.0135 H       1  UNL1        0.1466
     23 C         141.1568  141.2577  170.6703 C.ar    1  UNL1        0.1578
     24 C         142.4940  140.6463  170.9671 C.ar    1  UNL1        0.1356
     25 N         143.1263  139.7101  169.9804 N.ar    1  UNL1       -0.2391
     26 C         142.4215  139.3854  168.6967 C.ar    1  UNL1        0.0991
     27 C         141.0843  139.9969  168.3998 C.ar    1  UNL1        0.0222
     28 C         140.4520  140.9330  169.3866 C.ar    1  UNL1        0.0401
     29 C         139.4387  143.1292  171.2140 C.3     1  UNL1        0.2525
     30 O         140.5245  142.1939  171.6570 O.3     1  UNL1       -0.4699
@<TRIPOS>BOND
     1    29    30    1
     2    30    23    1
     3    23    24   ar
     4    24    25   ar
     5    25    26   ar
     6    26    27   ar
     7    27     1    1
     8     1     2   ar
     9     2     3   ar
    10     3     4   ar
    11     4     5   ar
    12     5     6   ar
    13     5     7    1
    14     7     8    1
    15     8     9    1
    16     9    10    1
    17    10    11    1
    18    10    12    2
    19     7    13    1
    20    13    14    1
    21    14    15    1
    22    15    16    1
    23    13    17    1
    24    17    18    1
    25    17    19    1
    26    17    20    1
    27    27    28   ar
    28    28    23   ar
    29     6     1   ar
    30    12     7    1
    31    16    13    1
    32    20     4    1
    33    11    21    1
    34    11    22    1
@<TRIPOS>MOLECULE
*****
 30 34 0 0 0
SMALL
GASTEIGER

@<TRIPOS>ATOM
      1 C         142.7089  141.4883  164.5046 C.ar    1  UNL1        0.0015
      2 C         143.4868  142.2471  165.5387 C.ar    1  UNL1        0.0031
      3 C         143.0289  142.2526  166.9670 C.ar    1  UNL1        0.0366
      4 C         141.7930  141.4995  167.3614 C.ar    1  UNL1        0.1360
      5 C         141.0152  140.7407  166.3274 C.ar    1  UNL1        0.0357
      6 C         141.4731  140.7351  164.8990 C.ar    1  UNL1        0.0007
      7 C         139.7794  139.9876  166.7218 C.3     1  UNL1        0.1580
      8 C         138.5310  139.1924  166.9654 C.3     1  UNL1        0.2351
      9 O         138.0934  138.6041  165.6567 O.2     1  UNL1       -0.4478
     10 C         139.0712  139.0357  164.6043 C.2     1  UNL1        0.2770
     11 N         139.0167  138.6756  163.1493 N.pl3   1  UNL1       -0.3133
     12 N         140.1133  139.8907  165.2625 N.2     1  UNL1       -0.2202
     13 C         139.3214  139.9931  168.1501 C.3     1  UNL1        0.1141
     14 C         139.6662  140.2033  168.0401 C.3     1  UNL1        0.1501
     15 O         139.3038  139.9824  168.1557 O.3     1  UNL1       -0.3532
     16 C         139.6662  140.2033  168.0401 C.3     1  UNL1        0.1501
     17 C         140.0993  140.7519  169.1841 C.3     1  UNL1        0.1398
     18 C         140.4958  141.3172  170.5157 C.3     1  UNL1        0.0438
     19 C         139.0012  140.1950  170.0410 C.3     1  UNL1        0.0438
     20 O         141.3351  141.5050  168.7897 O.3     1  UNL1       -0.4826
     21 H         138.2892  138.1054  162.8102 H       1  UNL1        0.1466
     22 H         139.7083  139.0094  162.5333 H       1  UNL1        0.1466
     23 C         143.8816  140.1757  160.9477 C.ar    1  UNL1        0.1578
     24 C         144.0827  141.4715  160.2195 C.ar    1  UNL1        0.1356
     25 N         143.8259  142.7730  160.9196 N.ar    1  UNL1       -0.2391
     26 C         143.3679  142.7786  162.3481 C.ar    1  UNL1        0.0991
     27 C         143.1668  141.4827  163.0763 C.ar    1  UNL1        0.0222
     28 C         143.4237  140.1812  162.3760 C.ar    1  UNL1        0.0401
     29 C         143.2789  137.6810  160.5435 C.3     1  UNL1        0.2525
     30 O         144.1384  138.8742  160.2475 O.3     1  UNL1       -0.4699
@<TRIPOS>BOND
     1    29    30    1
     2    30    23    1
     3    23    24   ar
     4    24    25   ar
     5    25    26   ar
     6    26    27   ar
     7    27     1    1
     8     1     2   ar
     9     2     3   ar
    10     3     4   ar
    11     4     5   ar
    12     5     6   ar
    13     5     7    1
    14     7     8    1
    15     8     9    1
    16     9    10    1
    17    10    11    1
    18    10    12    2
    19     7    13    1
    20    13    14    1
    21    14    15    1
    22    15    16    1
    23    13    17    1
    24    17    18    1
    25    17    19    1
    26    17    20    1
    27    27    28   ar
    28    28    23   ar
    29     6     1   ar
    30    12     7    1
    31    16    13    1
    32    20     4    1
    33    11    21    1
    34    11    22    1
@<TRIPOS>MOLECULE
*****
 30 34 0 0 0
SMALL
GASTEIGER

@<TRIPOS>ATOM
      1 C         140.7035  143.1866  164.8071 C.ar    1  UNL1        0.0015
      2 C         139.9309  143.7026  165.9847 C.ar    1  UNL1        0.0031
      3 C         140.0412  143.0155  167.3135 C.ar    1  UNL1        0.0366
      4 C         140.9242  141.8124  167.4647 C.ar    1  UNL1        0.1360
      5 C         141.6968  141.2964  166.2872 C.ar    1  UNL1        0.0357
      6 C         141.5865  141.9834  164.9583 C.ar    1  UNL1        0.0007
      7 C         142.5798  140.0932  166.4384 C.3     1  UNL1        0.1580
      8 C         143.4979  138.9070  166.4375 C.3     1  UNL1        0.2351
      9 O         144.0555  138.7534  165.0534 O.2     1  UNL1       -0.4478
     10 C         143.4820  139.8447  164.1989 C.2     1  UNL1        0.2770
     11 N         143.7699  140.0686  162.7440 N.pl3   1  UNL1       -0.3133
     12 N         142.5699  140.6728  165.0548 N.2     1  UNL1       -0.2202
     13 C         142.6901  139.4062  167.7671 C.3     1  UNL1        0.1141
     14 C         142.4438  139.7418  167.7250 C.3     1  UNL1        0.1501
     15 O         142.7027  139.3890  167.7693 O.3     1  UNL1       -0.3532
     16 C         142.4438  139.7418  167.7250 C.3     1  UNL1        0.1501
     17 C         141.9175  139.9222  168.9447 C.3     1  UNL1        0.1398
     18 C         141.3877  140.0339  170.3436 C.3     1  UNL1        0.0438
     19 C         142.6165  138.7578  169.5818 C.3     1  UNL1        0.0438
     20 O         141.0346  141.1254  168.7935 O.3     1  UNL1       -0.4826
     21 H         144.3863  139.4679  162.2660 H       1  UNL1        0.1466
     22 H         143.3426  140.8164  162.2670 H       1  UNL1        0.1466
     23 C         141.5553  144.3745  161.1175 C.ar    1  UNL1        0.1578
     24 C         140.3724  145.2478  160.8206 C.ar    1  UNL1        0.1356
     25 N         139.2999  145.4340  161.8526 N.ar    1  UNL1       -0.2391
     26 C         139.4102  144.7469  163.1815 C.ar    1  UNL1        0.0991
     27 C         140.5931  143.8736  163.4783 C.ar    1  UNL1        0.0222
     28 C         141.6657  143.6874  162.4463 C.ar    1  UNL1        0.0401
     29 C         143.5018  142.9697  160.1235 C.3     1  UNL1        0.2525
     30 O         142.6278  144.1882  160.0855 O.3     1  UNL1       -0.4699
@<TRIPOS>BOND
     1    29    30    1
     2    30    23    1
     3    23    24   ar
     4    24    25   ar
     5    25    26   ar
     6    26    27   ar
     7    27     1    1
     8     1     2   ar
     9     2     3   ar
    10     3     4   ar
    11     4     5   ar
    12     5     6   ar
    13     5     7    1
    14     7     8    1
    15     8     9    1
    16     9    10    1
    17    10    11    1
    18    10    12    2
    19     7    13    1
    20    13    14    1
    21    14    15    1
    22    15    16    1
    23    13    17    1
    24    17    18    1
    25    17    19    1
    26    17    20    1
    27    27    28   ar
    28    28    23   ar
    29     6     1   ar
    30    12     7    1
    31    16    13    1
    32    20     4    1
    33    11    21    1
    34    11    22    1
@<TRIPOS>MOLECULE
*****
 30 34 0 0 0
SMALL
GASTEIGER

@<TRIPOS>ATOM
      1 C         139.4931  139.8534  165.5470 C.ar    1  UNL1        0.0015
      2 C         138.7951  139.4510  166.8124 C.ar    1  UNL1        0.0031
      3 C         139.3471  139.8756  168.1409 C.ar    1  UNL1        0.0366
      4 C         140.5971  140.7024  168.2042 C.ar    1  UNL1        0.1360
      5 C         141.2950  141.1047  166.9389 C.ar    1  UNL1        0.0357
      6 C         140.7430  140.6802  165.6103 C.ar    1  UNL1        0.0007
      7 C         142.5449  141.9316  167.0022 C.3     1  UNL1        0.1580
      8 C         143.7968  142.7525  166.9086 C.3     1  UNL1        0.2351
      9 O         144.1392  142.9119  165.4568 O.2     1  UNL1       -0.4478
     10 C         143.0989  142.1895  164.6532 C.2     1  UNL1        0.2770
     11 N         143.0520  142.0903  163.1573 N.pl3   1  UNL1       -0.3133
     12 N         142.1135  141.5835  165.6083 N.2     1  UNL1       -0.2202
     13 C         143.0969  142.3561  168.3307 C.3     1  UNL1        0.1141
     14 C         142.7482  142.1254  168.3131 C.3     1  UNL1        0.1501
     15 O         143.1147  142.3679  168.3316 O.3     1  UNL1       -0.3532
     16 C         142.7482  142.1254  168.3131 C.3     1  UNL1        0.1501
     17 C         142.3990  141.9538  169.5960 C.3     1  UNL1        0.1398
     18 C         142.0990  141.8228  171.0598 C.3     1  UNL1        0.0438
     19 C         143.5447  142.7352  170.1677 C.3     1  UNL1        0.0438
     20 O         141.1490  141.1269  169.5327 O.3     1  UNL1       -0.4826
     21 H         143.7482  142.5244  162.6132 H       1  UNL1        0.1466
     22 H         142.3251  141.5911  162.7196 H       1  UNL1        0.1466
     23 C         137.8954  140.0354  161.9188 C.ar    1  UNL1        0.1578
     24 C         137.8371  138.5798  161.5614 C.ar    1  UNL1        0.1356
     25 N         138.3307  137.5487  162.5325 N.ar    1  UNL1       -0.2391
     26 C         138.8828  137.9732  163.8611 C.ar    1  UNL1        0.0991
     27 C         138.9411  139.4288  164.2185 C.ar    1  UNL1        0.0222
     28 C         138.4474  140.4600  163.2473 C.ar    1  UNL1        0.0401
     29 C         138.3783  141.8261  160.0993 C.3     1  UNL1        0.2525
     30 O         137.4018  141.0665  160.9477 O.3     1  UNL1       -0.4699
@<TRIPOS>BOND
     1    29    30    1
     2    30    23    1
     3    23    24   ar
     4    24    25   ar
     5    25    26   ar
     6    26    27   ar
     7    27     1    1
     8     1     2   ar
     9     2     3   ar
    10     3     4   ar
    11     4     5   ar
    12     5     6   ar
    13     5     7    1
    14     7     8    1
    15     8     9    1
    16     9    10    1
    17    10    11    1
    18    10    12    2
    19     7    13    1
    20    13    14    1
    21    14    15    1
    22    15    16    1
    23    13    17    1
    24    17    18    1
    25    17    19    1
    26    17    20    1
    27    27    28   ar
    28    28    23   ar
    29     6     1   ar
    30    12     7    1
    31    16    13    1
    32    20     4    1
    33    11    21    1
    34    11    22    1
@<TRIPOS>MOLECULE
*****
 30 34 0 0 0
SMALL
GASTEIGER

@<TRIPOS>ATOM
      1 C         141.2817  142.6973  164.5312 C.ar    1  UNL1        0.0015
      2 C         140.3824  143.3449  165.5422 C.ar    1  UNL1        0.0031
      3 C         140.3036  142.7967  166.9361 C.ar    1  UNL1        0.0366
      4 C         141.1241  141.6008  167.3192 C.ar    1  UNL1        0.1360
      5 C         142.0233  140.9532  166.3083 C.ar    1  UNL1        0.0357
      6 C         142.1022  141.5015  164.9143 C.ar    1  UNL1        0.0007
      7 C         142.8438  139.7573  166.6914 C.3     1  UNL1        0.1580
      8 C         143.7188  138.5620  166.9273 C.3     1  UNL1        0.2351
      9 O         144.4418  138.2572  165.6487 O.2     1  UNL1       -0.4478
     10 C         144.0136  139.2642  164.6227 C.2     1  UNL1        0.2770
     11 N         144.4894  139.3322  163.2019 N.pl3   1  UNL1       -0.3133
     12 N         143.0260  140.1913  165.2671 N.2     1  UNL1       -0.2202
     13 C         142.7650  139.2090  168.0854 C.3     1  UNL1        0.1141
     14 C         142.5361  139.5427  167.9785 C.3     1  UNL1        0.1501
     15 O         142.7767  139.1920  168.0908 O.3     1  UNL1       -0.3532
     16 C         142.5361  139.5427  167.9785 C.3     1  UNL1        0.1501
     17 C         141.8657  139.8566  169.0962 C.3     1  UNL1        0.1398
     18 C         141.1672  140.1207  170.3971 C.3     1  UNL1        0.0438
     19 C         142.4436  138.7524  169.9312 C.3     1  UNL1        0.0438
     20 O         141.0453  141.0525  168.7132 O.3     1  UNL1       -0.4826
     21 H         145.1429  138.6751  162.8697 H       1  UNL1        0.1466
     22 H         144.1482  140.0339  162.6016 H       1  UNL1        0.1466
     23 C         140.2386  143.7370  160.8460 C.ar    1  UNL1        0.1578
     24 C         141.5181  144.3422  160.3493 C.ar    1  UNL1        0.1356
     25 N         142.7187  144.3991  161.2466 N.ar    1  UNL1       -0.2391
     26 C         142.6400  143.8508  162.6406 C.ar    1  UNL1        0.0991
     27 C         141.3605  143.2456  163.1373 C.ar    1  UNL1        0.0222
     28 C         140.1598  143.1887  162.2399 C.ar    1  UNL1        0.0401
     29 C         138.5218  142.3556  159.4696 C.3     1  UNL1        0.2525
     30 O         139.0380  143.6800  159.9487 O.3     1  UNL1       -0.4699
@<TRIPOS>BOND
     1    29    30    1
     2    30    23    1
     3    23    24   ar
     4    24    25   ar
     5    25    26   ar
     6    26    27   ar
     7    27     1    1
     8     1     2   ar
     9     2     3   ar
    10     3     4   ar
    11     4     5   ar
    12     5     6   ar
    13     5     7    1
    14     7     8    1
    15     8     9    1
    16     9    10    1
    17    10    11    1
    18    10    12    2
    19     7    13    1
    20    13    14    1
    21    14    15    1
    22    15    16    1
    23    13    17    1
    24    17    18    1
    25    17    19    1
    26    17    20    1
    27    27    28   ar
    28    28    23   ar
    29     6     1   ar
    30    12     7    1
    31    16    13    1
    32    20     4    1
    33    11    21    1
    34    11    22    1
@<TRIPOS>MOLECULE
*****
 30 34 0 0 0
SMALL
GASTEIGER

@<TRIPOS>ATOM
      1 C         140.9591  142.2163  166.4634 C.ar    1  UNL1        0.0015
      2 C         139.8317  143.2007  166.5645 C.ar    1  UNL1        0.0031
      3 C         139.5267  144.1126  165.4133 C.ar    1  UNL1        0.0366
      4 C         140.3492  144.0403  164.1609 C.ar    1  UNL1        0.1360
      5 C         141.4765  143.0560  164.0598 C.ar    1  UNL1        0.0357
      6 C         141.7815  142.1440  165.2111 C.ar    1  UNL1        0.0007
      7 C         142.2990  142.9837  162.8075 C.3     1  UNL1        0.1580
      8 C         143.2034  142.7974  161.6253 C.3     1  UNL1        0.2351
      9 O         144.1833  141.7114  161.9580 O.2     1  UNL1       -0.4478
     10 C         143.8846  141.2266  163.3457 C.2     1  UNL1        0.2770
     11 N         144.6210  140.1455  164.0795 N.pl3   1  UNL1       -0.3133
     12 N         142.7200  142.0129  163.8707 N.2     1  UNL1       -0.2202
     13 C         141.9940  143.8956  161.6562 C.3     1  UNL1        0.1141
     14 C         141.7646  143.9158  162.0056 C.3     1  UNL1        0.1501
     15 O         142.0058  143.8946  161.6384 O.3     1  UNL1       -0.3532
     16 C         141.7646  143.9158  162.0056 C.3     1  UNL1        0.1501
     17 C         140.8667  144.8799  161.7574 C.3     1  UNL1        0.1398
     18 C         139.9095  145.9706  161.3777 C.3     1  UNL1        0.0438
     19 C         141.3567  145.1864  160.3731 C.3     1  UNL1        0.0438
     20 O         140.0442  144.9522  163.0097 O.3     1  UNL1       -0.4826
     21 H         145.3767  139.6847  163.6485 H       1  UNL1        0.1466
     22 H         144.3486  139.8966  164.9923 H       1  UNL1        0.1466
     23 C         140.4993  140.0612  169.7640 C.ar    1  UNL1        0.1578
     24 C         141.8739  139.4805  169.9172 C.ar    1  UNL1        0.1356
     25 N         142.9435  139.8118  168.9191 N.ar    1  UNL1       -0.2391
     26 C         142.6386  140.7238  167.7678 C.ar    1  UNL1        0.0991
     27 C         141.2640  141.3044  167.6146 C.ar    1  UNL1        0.0222
     28 C         140.1944  140.9731  168.6128 C.ar    1  UNL1        0.0401
     29 C         137.9862  139.9395  170.4119 C.3     1  UNL1        0.2525
     30 O         139.4297  139.7299  170.7620 O.3     1  UNL1       -0.4699
@<TRIPOS>BOND
     1    29    30    1
     2    30    23    1
     3    23    24   ar
     4    24    25   ar
     5    25    26   ar
     6    26    27   ar
     7    27     1    1
     8     1     2   ar
     9     2     3   ar
    10     3     4   ar
    11     4     5   ar
    12     5     6   ar
    13     5     7    1
    14     7     8    1
    15     8     9    1
    16     9    10    1
    17    10    11    1
    18    10    12    2
    19     7    13    1
    20    13    14    1
    21    14    15    1
    22    15    16    1
    23    13    17    1
    24    17    18    1
    25    17    19    1
    26    17    20    1
    27    27    28   ar
    28    28    23   ar
    29     6     1   ar
    30    12     7    1
    31    16    13    1
    32    20     4    1
    33    11    21    1
    34    11    22    1
@<TRIPOS>MOLECULE
*****
 30 34 0 0 0
SMALL
GASTEIGER

@<TRIPOS>ATOM
      1 C         142.1232  141.0350  166.6577 C.ar    1  UNL1        0.0015
      2 C         143.4313  141.5207  166.1073 C.ar    1  UNL1        0.0031
      3 C         143.9162  141.0242  164.7776 C.ar    1  UNL1        0.0366
      4 C         143.0930  140.0419  163.9981 C.ar    1  UNL1        0.1360
      5 C         141.7849  139.5562  164.5485 C.ar    1  UNL1        0.0357
      6 C         141.3000  140.0527  165.8783 C.ar    1  UNL1        0.0007
      7 C         140.9617  138.5739  163.7691 C.3     1  UNL1        0.1580
      8 C         140.0348  137.5977  163.1074 C.3     1  UNL1        0.2351
      9 O         138.8510  137.3996  164.0071 O.2     1  UNL1       -0.4478
     10 C         139.0463  138.2533  165.2249 C.2     1  UNL1        0.2770
     11 N         138.1029  138.3622  166.3858 N.pl3   1  UNL1       -0.3133
     12 N         140.3508  138.9792  165.0778 N.2     1  UNL1       -0.2202
     13 C         141.4466  138.0774  162.4393 C.3     1  UNL1        0.1141
     14 C         141.6763  138.3515  162.6568 C.3     1  UNL1        0.1501
     15 O         141.4349  138.0634  162.4282 O.3     1  UNL1       -0.3532
     16 C         141.6763  138.3515  162.6568 C.3     1  UNL1        0.1501
     17 C         142.7547  138.5631  161.8890 C.3     1  UNL1        0.1398
     18 C         143.9171  138.7275  160.9553 C.3     1  UNL1        0.0438
     19 C         142.3352  137.6379  160.7852 C.3     1  UNL1        0.0438
     20 O         143.5779  139.5454  162.6684 O.3     1  UNL1       -0.4826
     21 H         137.2664  137.8430  166.3907 H       1  UNL1        0.1466
     22 H         138.3201  138.9528  167.1429 H       1  UNL1        0.1466
     23 C         139.8279  141.5711  169.8506 C.ar    1  UNL1        0.1578
     24 C         140.6684  142.5246  170.6470 C.ar    1  UNL1        0.1356
     25 N         141.9938  142.9816  170.1137 N.ar    1  UNL1       -0.2391
     26 C         142.4788  142.4851  168.7839 C.ar    1  UNL1        0.0991
     27 C         141.6383  141.5315  167.9875 C.ar    1  UNL1        0.0222
     28 C         140.3128  141.0745  168.5208 C.ar    1  UNL1        0.0401
     29 C         138.0324  139.7134  170.1247 C.3     1  UNL1        0.2525
     30 O         138.5026  141.1140  170.3839 O.3     1  UNL1       -0.4699
@<TRIPOS>BOND
     1    29    30    1
     2    30    23    1
     3    23    24   ar
     4    24    25   ar
     5    25    26   ar
     6    26    27   ar
     7    27     1    1
     8     1     2   ar
     9     2     3   ar
    10     3     4   ar
    11     4     5   ar
    12     5     6   ar
    13     5     7    1
    14     7     8    1
    15     8     9    1
    16     9    10    1
    17    10    11    1
    18    10    12    2
    19     7    13    1
    20    13    14    1
    21    14    15    1
    22    15    16    1
    23    13    17    1
    24    17    18    1
    25    17    19    1
    26    17    20    1
    27    27    28   ar
    28    28    23   ar
    29     6     1   ar
    30    12     7    1
    31    16    13    1
    32    20     4    1
    33    11    21    1
    34    11    22    1
