@<TRIPOS>MOLECULE
*****
 31 34 0 0 0
SMALL
GASTEIGER

@<TRIPOS>ATOM
      1 N         139.6943  140.5278  166.3395 N.pl3   1  UNL1       -0.1766
      2 C         140.7159  141.3882  165.6569 C.2     1  UNL1        0.1416
      3 C         141.8798  141.9295  166.4329 C.2     1  UNL1        0.1528
      4 O         142.9014  142.7900  165.7503 O.2     1  UNL1       -0.5041
      5 C         142.0222  141.6105  167.8917 C.ar    1  UNL1        0.0540
      6 C         143.1860  142.1518  168.6678 C.ar    1  UNL1        0.0044
      7 C         143.3283  141.8327  170.1265 C.ar    1  UNL1        0.0002
      8 C         142.3067  140.9723  170.8092 C.ar    1  UNL1        0.0014
      9 C         141.1428  140.4310  170.0331 C.ar    1  UNL1        0.0203
     10 C         141.0006  140.7501  168.5744 C.ar    1  UNL1        0.1283
     11 S         139.8366  140.2087  167.7983 S.O2    1  UNL1        0.0772
     12 O         138.5693  139.4671  167.4918 O.2     1  UNL1       -0.1497
     13 O         139.5388  139.6321  169.1506 O.2     1  UNL1       -0.1497
     14 H         142.8125  142.9893  164.8390 H       1  UNL1        0.2923
     15 C         140.5736  141.7073  164.1981 C.2     1  UNL1        0.2133
     16 O         139.6474  142.8015  163.7566 O.2     1  UNL1       -0.2851
     17 C         141.3575  140.9322  163.1809 C.ar    1  UNL1        0.0404
     18 C         141.2827  141.3083  161.7307 C.ar    1  UNL1        0.0032
     19 C         142.0665  140.5332  160.7135 C.ar    1  UNL1        0.0001
     20 C         142.9253  139.3820  161.1464 C.ar    1  UNL1        0.0000
     21 C         143.0001  139.0059  162.5966 C.ar    1  UNL1        0.0001
     22 C         142.2162  139.7811  163.6138 C.ar    1  UNL1        0.0032
     23 C         138.5304  139.9865  165.5634 C.3     1  UNL1        0.1847
     24 O         138.9980  137.4478  165.2694 O.2     1  UNL1       -0.2895
     25 C         138.7129  138.7939  164.6721 C.2     1  UNL1        0.1948
     26 C         138.6102  138.9473  163.1836 C.ar    1  UNL1        0.0365
     27 C         137.8010  140.0670  162.5990 C.ar    1  UNL1        0.0029
     28 C         137.6983  140.2204  161.1105 C.ar    1  UNL1        0.0001
     29 C         138.4048  139.2542  160.2063 C.ar    1  UNL1        0.0000
     30 C         139.2140  138.1346  160.7909 C.ar    1  UNL1        0.0001
     31 C         139.3167  137.9812  162.2795 C.ar    1  UNL1        0.0029
@<TRIPOS>BOND
     1    24    25    2
     2    25    23    1
     3    23     1    1
     4     1     2    1
     5     2    15    1
     6    15    16    2
     7    15    17    1
     8    17    18   ar
     9    18    19   ar
    10    19    20   ar
    11    20    21   ar
    12    21    22   ar
    13     2     3    2
    14     3     4    1
    15     3     5    1
    16     5     6   ar
    17     6     7   ar
    18     7     8   ar
    19     8     9   ar
    20     9    10   ar
    21    10    11    1
    22    11    12    2
    23    11    13    2
    24    25    26    1
    25    26    27   ar
    26    27    28   ar
    27    28    29   ar
    28    29    30   ar
    29    30    31   ar
    30    11     1    1
    31    31    26   ar
    32    22    17   ar
    33    10     5   ar
    34     4    14    1
@<TRIPOS>MOLECULE
*****
 31 34 0 0 0
SMALL
GASTEIGER

@<TRIPOS>ATOM
      1 N         140.5993  143.5656  162.5067 N.pl3   1  UNL1       -0.1766
      2 C         141.7035  142.5714  162.3009 C.2     1  UNL1        0.1416
      3 C         142.4715  142.5595  161.0126 C.2     1  UNL1        0.1528
      4 O         143.5756  141.5653  160.8067 O.2     1  UNL1       -0.5041
      5 C         142.1354  143.5420  159.9299 C.ar    1  UNL1        0.0540
      6 C         142.9035  143.5301  158.6416 C.ar    1  UNL1        0.0044
      7 C         142.5674  144.5125  157.5591 C.ar    1  UNL1        0.0002
      8 C         141.4633  145.5068  157.7649 C.ar    1  UNL1        0.0014
      9 C         140.6952  145.5186  159.0533 C.ar    1  UNL1        0.0203
     10 C         141.0313  144.5362  160.1358 C.ar    1  UNL1        0.1283
     11 S         140.2632  144.5480  161.4242 S.O2    1  UNL1        0.0772
     12 O         139.2571  144.9495  162.4618 O.2     1  UNL1       -0.1497
     13 O         139.5777  145.6699  160.7020 O.2     1  UNL1       -0.1497
     14 H         143.7856  140.9516  161.4830 H       1  UNL1        0.2923
     15 C         142.0395  141.5890  163.3835 C.2     1  UNL1        0.2133
     16 O         142.9470  141.9929  164.5075 O.2     1  UNL1       -0.2851
     17 C         141.4681  140.2027  163.3421 C.ar    1  UNL1        0.0404
     18 C         141.8364  139.2077  164.4024 C.ar    1  UNL1        0.0032
     19 C         141.2650  137.8214  164.3610 C.ar    1  UNL1        0.0001
     20 C         140.3253  137.4302  163.2593 C.ar    1  UNL1        0.0000
     21 C         139.9569  138.4252  162.1989 C.ar    1  UNL1        0.0001
     22 C         140.5284  139.8115  162.2404 C.ar    1  UNL1        0.0032
     23 C         139.8313  143.5775  163.7952 C.3     1  UNL1        0.1847
     24 O         137.5044  142.6052  163.1703 O.2     1  UNL1       -0.2895
     25 C         138.7368  142.5778  164.0251 C.2     1  UNL1        0.1948
     26 C         138.8746  141.5509  165.1096 C.ar    1  UNL1        0.0365
     27 C         138.1123  140.2619  165.0233 C.ar    1  UNL1        0.0029
     28 C         138.2502  139.2350  166.1079 C.ar    1  UNL1        0.0001
     29 C         139.1503  139.4970  167.2789 C.ar    1  UNL1        0.0000
     30 C         139.9125  140.7860  167.3653 C.ar    1  UNL1        0.0001
     31 C         139.7747  141.8130  166.2806 C.ar    1  UNL1        0.0029
@<TRIPOS>BOND
     1    24    25    2
     2    25    23    1
     3    23     1    1
     4     1     2    1
     5     2    15    1
     6    15    16    2
     7    15    17    1
     8    17    18   ar
     9    18    19   ar
    10    19    20   ar
    11    20    21   ar
    12    21    22   ar
    13     2     3    2
    14     3     4    1
    15     3     5    1
    16     5     6   ar
    17     6     7   ar
    18     7     8   ar
    19     8     9   ar
    20     9    10   ar
    21    10    11    1
    22    11    12    2
    23    11    13    2
    24    25    26    1
    25    26    27   ar
    26    27    28   ar
    27    28    29   ar
    28    29    30   ar
    29    30    31   ar
    30    11     1    1
    31    31    26   ar
    32    22    17   ar
    33    10     5   ar
    34     4    14    1
@<TRIPOS>MOLECULE
*****
 31 34 0 0 0
SMALL
GASTEIGER

@<TRIPOS>ATOM
      1 N         142.5219  140.0619  166.3379 N.pl3   1  UNL1       -0.1766
      2 C         141.7629  141.2529  165.8326 C.2     1  UNL1        0.1416
      3 C         141.0186  142.1310  166.7943 C.2     1  UNL1        0.1528
      4 O         140.2596  143.3221  166.2891 O.2     1  UNL1       -0.5041
      5 C         141.0333  141.8181  168.2613 C.ar    1  UNL1        0.0540
      6 C         140.2890  142.6963  169.2230 C.ar    1  UNL1        0.0044
      7 C         140.3037  142.3833  170.6898 C.ar    1  UNL1        0.0002
      8 C         141.0628  141.1923  171.1951 C.ar    1  UNL1        0.0014
      9 C         141.8071  140.3142  170.2334 C.ar    1  UNL1        0.0203
     10 C         141.7923  140.6271  168.7665 C.ar    1  UNL1        0.1283
     11 S         142.5367  139.7489  167.8048 S.O2    1  UNL1        0.0772
     12 O         143.3889  138.6268  167.2905 O.2     1  UNL1       -0.1497
     13 O         142.8474  139.0463  169.0931 O.2     1  UNL1       -0.1497
     14 H         140.2504  143.5176  165.3728 H       1  UNL1        0.2923
     15 C         141.7482  141.5658  164.3657 C.2     1  UNL1        0.2133
     16 O         142.8837  142.3285  163.7501 O.2     1  UNL1       -0.2851
     17 C         140.5980  141.1161  163.5144 C.ar    1  UNL1        0.0404
     18 C         140.5692  141.4542  162.0532 C.ar    1  UNL1        0.0032
     19 C         139.4190  141.0044  161.2019 C.ar    1  UNL1        0.0001
     20 C         138.2976  140.2165  161.8117 C.ar    1  UNL1        0.0000
     21 C         138.3265  139.8784  163.2729 C.ar    1  UNL1        0.0001
     22 C         139.4767  140.3282  164.1242 C.ar    1  UNL1        0.0032
     23 C         143.2663  139.1837  165.3761 C.3     1  UNL1        0.1847
     24 O         141.5651  137.2623  164.9705 O.2     1  UNL1       -0.2895
     25 C         142.5107  138.2953  164.4328 C.2     1  UNL1        0.1948
     26 C         142.7007  138.4397  162.9520 C.ar    1  UNL1        0.0365
     27 C         141.6686  137.8992  162.0072 C.ar    1  UNL1        0.0029
     28 C         141.8586  138.0436  160.5263 C.ar    1  UNL1        0.0001
     29 C         143.0807  138.7285  159.9902 C.ar    1  UNL1        0.0000
     30 C         144.1129  139.2689  160.9350 C.ar    1  UNL1        0.0001
     31 C         143.9228  139.1245  162.4159 C.ar    1  UNL1        0.0029
@<TRIPOS>BOND
     1    24    25    2
     2    25    23    1
     3    23     1    1
     4     1     2    1
     5     2    15    1
     6    15    16    2
     7    15    17    1
     8    17    18   ar
     9    18    19   ar
    10    19    20   ar
    11    20    21   ar
    12    21    22   ar
    13     2     3    2
    14     3     4    1
    15     3     5    1
    16     5     6   ar
    17     6     7   ar
    18     7     8   ar
    19     8     9   ar
    20     9    10   ar
    21    10    11    1
    22    11    12    2
    23    11    13    2
    24    25    26    1
    25    26    27   ar
    26    27    28   ar
    27    28    29   ar
    28    29    30   ar
    29    30    31   ar
    30    11     1    1
    31    31    26   ar
    32    22    17   ar
    33    10     5   ar
    34     4    14    1
@<TRIPOS>MOLECULE
*****
 31 34 0 0 0
SMALL
GASTEIGER

@<TRIPOS>ATOM
      1 N         139.7576  140.3591  166.3770 N.pl3   1  UNL1       -0.1766
      2 C         140.9236  141.0876  165.7772 C.2     1  UNL1        0.1416
      3 C         142.0538  141.5430  166.6519 C.2     1  UNL1        0.1528
      4 O         143.2198  142.2715  166.0522 O.2     1  UNL1       -0.5041
      5 C         142.0180  141.2700  168.1265 C.ar    1  UNL1        0.0540
      6 C         143.1481  141.7255  169.0012 C.ar    1  UNL1        0.0044
      7 C         143.1123  141.4525  170.4757 C.ar    1  UNL1        0.0002
      8 C         141.9463  140.7241  171.0755 C.ar    1  UNL1        0.0014
      9 C         140.8161  140.2686  170.2008 C.ar    1  UNL1        0.0203
     10 C         140.8519  140.5416  168.7263 C.ar    1  UNL1        0.1283
     11 S         139.7217  140.0861  167.8515 S.O2    1  UNL1        0.0772
     12 O         138.4223  139.4603  167.4391 O.2     1  UNL1       -0.1497
     13 O         139.2346  139.5958  169.1828 O.2     1  UNL1       -0.1497
     14 H         143.2422  142.4420  165.1311 H       1  UNL1        0.2923
     15 C         140.9594  141.3605  164.3027 C.2     1  UNL1        0.2133
     16 O         141.6969  140.4306  163.3855 O.2     1  UNL1       -0.2851
     17 C         140.2577  142.5634  163.7453 C.ar    1  UNL1        0.0404
     18 C         140.2170  142.7881  162.2628 C.ar    1  UNL1        0.0032
     19 C         139.5153  143.9909  161.7055 C.ar    1  UNL1        0.0001
     20 C         138.8543  144.9693  162.6308 C.ar    1  UNL1        0.0000
     21 C         138.8950  144.7447  164.1133 C.ar    1  UNL1        0.0001
     22 C         139.5967  143.5417  164.6706 C.ar    1  UNL1        0.0032
     23 C         138.6273  139.9036  165.5022 C.3     1  UNL1        0.1847
     24 O         139.1678  137.3964  165.0875 O.2     1  UNL1       -0.2895
     25 C         138.8265  138.7569  164.5559 C.2     1  UNL1        0.1948
     26 C         138.6845  138.9708  163.0780 C.ar    1  UNL1        0.0365
     27 C         137.8198  140.0819  162.5607 C.ar    1  UNL1        0.0029
     28 C         137.6778  140.2957  161.0828 C.ar    1  UNL1        0.0001
     29 C         138.4005  139.3984  160.1223 C.ar    1  UNL1        0.0000
     30 C         139.2652  138.2873  160.6396 C.ar    1  UNL1        0.0001
     31 C         139.4072  138.0735  162.1176 C.ar    1  UNL1        0.0029
@<TRIPOS>BOND
     1    24    25    2
     2    25    23    1
     3    23     1    1
     4     1     2    1
     5     2    15    1
     6    15    16    2
     7    15    17    1
     8    17    18   ar
     9    18    19   ar
    10    19    20   ar
    11    20    21   ar
    12    21    22   ar
    13     2     3    2
    14     3     4    1
    15     3     5    1
    16     5     6   ar
    17     6     7   ar
    18     7     8   ar
    19     8     9   ar
    20     9    10   ar
    21    10    11    1
    22    11    12    2
    23    11    13    2
    24    25    26    1
    25    26    27   ar
    26    27    28   ar
    27    28    29   ar
    28    29    30   ar
    29    30    31   ar
    30    11     1    1
    31    31    26   ar
    32    22    17   ar
    33    10     5   ar
    34     4    14    1
@<TRIPOS>MOLECULE
*****
 31 34 0 0 0
SMALL
GASTEIGER

@<TRIPOS>ATOM
      1 N         142.3681  139.8391  166.3001 N.pl3   1  UNL1       -0.1766
      2 C         141.4840  140.9524  165.8218 C.2     1  UNL1        0.1416
      3 C         140.7927  141.8401  166.8138 C.2     1  UNL1        0.1528
      4 O         139.9085  142.9535  166.3355 O.2     1  UNL1       -0.5041
      5 C         140.9854  141.6144  168.2842 C.ar    1  UNL1        0.0540
      6 C         140.2941  142.5021  169.2762 C.ar    1  UNL1        0.0044
      7 C         140.4869  142.2764  170.7465 C.ar    1  UNL1        0.0002
      8 C         141.3711  141.1630  171.2248 C.ar    1  UNL1        0.0014
      9 C         142.0624  140.2754  170.2328 C.ar    1  UNL1        0.0203
     10 C         141.8696  140.5011  168.7625 C.ar    1  UNL1        0.1283
     11 S         142.5609  139.6134  167.7704 S.O2    1  UNL1        0.0772
     12 O         143.4232  138.5148  167.2229 O.2     1  UNL1       -0.1497
     13 O         143.0532  139.0061  169.0506 O.2     1  UNL1       -0.1497
     14 H         139.7881  143.0944  165.4170 H       1  UNL1        0.2923
     15 C         141.2912  141.1781  164.3514 C.2     1  UNL1        0.2133
     16 O         140.0378  140.7034  163.6778 O.2     1  UNL1       -0.2851
     17 C         142.3517  141.8784  163.5547 C.ar    1  UNL1        0.0404
     18 C         143.5117  142.5233  164.2536 C.ar    1  UNL1        0.0032
     19 C         144.5723  143.2236  163.4570 C.ar    1  UNL1        0.0001
     20 C         144.4728  143.2791  161.9612 C.ar    1  UNL1        0.0000
     21 C         143.3128  142.6342  161.2623 C.ar    1  UNL1        0.0001
     22 C         142.2522  141.9339  162.0591 C.ar    1  UNL1        0.0032
     23 C         143.0594  138.9514  165.3080 C.3     1  UNL1        0.1847
     24 O         141.1785  137.2306  164.8069 O.2     1  UNL1       -0.2895
     25 C         142.2536  138.1577  164.3227 C.2     1  UNL1        0.1948
     26 C         142.5230  138.2912  162.8531 C.ar    1  UNL1        0.0365
     27 C         143.8917  138.6737  162.3732 C.ar    1  UNL1        0.0029
     28 C         144.1610  138.8072  160.9036 C.ar    1  UNL1        0.0001
     29 C         143.0616  138.5582  159.9140 C.ar    1  UNL1        0.0000
     30 C         141.6929  138.1757  160.3939 C.ar    1  UNL1        0.0001
     31 C         141.4236  138.0422  161.8635 C.ar    1  UNL1        0.0029
@<TRIPOS>BOND
     1    24    25    2
     2    25    23    1
     3    23     1    1
     4     1     2    1
     5     2    15    1
     6    15    16    2
     7    15    17    1
     8    17    18   ar
     9    18    19   ar
    10    19    20   ar
    11    20    21   ar
    12    21    22   ar
    13     2     3    2
    14     3     4    1
    15     3     5    1
    16     5     6   ar
    17     6     7   ar
    18     7     8   ar
    19     8     9   ar
    20     9    10   ar
    21    10    11    1
    22    11    12    2
    23    11    13    2
    24    25    26    1
    25    26    27   ar
    26    27    28   ar
    27    28    29   ar
    28    29    30   ar
    29    30    31   ar
    30    11     1    1
    31    31    26   ar
    32    22    17   ar
    33    10     5   ar
    34     4    14    1
@<TRIPOS>MOLECULE
*****
 31 34 0 0 0
SMALL
GASTEIGER

@<TRIPOS>ATOM
      1 N         140.5085  139.9819  162.4005 N.pl3   1  UNL1       -0.1766
      2 C         140.2286  141.2181  163.2027 C.2     1  UNL1        0.1416
      3 C         139.4843  141.1170  164.5011 C.2     1  UNL1        0.1528
      4 O         139.2044  142.3532  165.3033 O.2     1  UNL1       -0.5041
      5 C         139.0199  139.7798  164.9973 C.ar    1  UNL1        0.0540
      6 C         138.2756  139.6787  166.2956 C.ar    1  UNL1        0.0044
      7 C         137.8113  138.3415  166.7918 C.ar    1  UNL1        0.0002
      8 C         138.0911  137.1054  165.9895 C.ar    1  UNL1        0.0014
      9 C         138.8354  137.2064  164.6912 C.ar    1  UNL1        0.0203
     10 C         139.2998  138.5436  164.1950 C.ar    1  UNL1        0.1283
     11 S         140.0441  138.6447  162.8966 S.O2    1  UNL1        0.0772
     12 O         140.7071  138.2315  161.6160 O.2     1  UNL1       -0.1497
     13 O         139.8100  137.1640  162.9480 O.2     1  UNL1       -0.1497
     14 H         139.4945  143.1885  164.9934 H       1  UNL1        0.2923
     15 C         140.6930  142.5553  162.7065 C.2     1  UNL1        0.2133
     16 O         139.9993  143.2075  161.5474 O.2     1  UNL1       -0.2851
     17 C         141.8511  143.2404  163.3694 C.ar    1  UNL1        0.0404
     18 C         142.4719  144.4487  162.7333 C.ar    1  UNL1        0.0032
     19 C         143.6300  145.1338  163.3961 C.ar    1  UNL1        0.0001
     20 C         144.1674  144.6105  164.6952 C.ar    1  UNL1        0.0000
     21 C         143.5466  143.4023  165.3314 C.ar    1  UNL1        0.0001
     22 C         142.3884  142.7172  164.6684 C.ar    1  UNL1        0.0032
     23 C         141.2528  140.0830  161.1020 C.3     1  UNL1        0.1847
     24 O         143.0942  138.6482  159.9616 O.2     1  UNL1       -0.2895
     25 C         142.6800  139.6289  161.0183 C.2     1  UNL1        0.1948
     26 C         143.6928  140.1554  161.9914 C.ar    1  UNL1        0.0365
     27 C         143.9229  139.4452  163.2924 C.ar    1  UNL1        0.0029
     28 C         144.9358  139.9718  164.2654 C.ar    1  UNL1        0.0001
     29 C         145.7187  141.2086  163.9374 C.ar    1  UNL1        0.0000
     30 C         145.4886  141.9188  162.6364 C.ar    1  UNL1        0.0001
     31 C         144.4757  141.3922  161.6633 C.ar    1  UNL1        0.0029
@<TRIPOS>BOND
     1    24    25    2
     2    25    23    1
     3    23     1    1
     4     1     2    1
     5     2    15    1
     6    15    16    2
     7    15    17    1
     8    17    18   ar
     9    18    19   ar
    10    19    20   ar
    11    20    21   ar
    12    21    22   ar
    13     2     3    2
    14     3     4    1
    15     3     5    1
    16     5     6   ar
    17     6     7   ar
    18     7     8   ar
    19     8     9   ar
    20     9    10   ar
    21    10    11    1
    22    11    12    2
    23    11    13    2
    24    25    26    1
    25    26    27   ar
    26    27    28   ar
    27    28    29   ar
    28    29    30   ar
    29    30    31   ar
    30    11     1    1
    31    31    26   ar
    32    22    17   ar
    33    10     5   ar
    34     4    14    1
@<TRIPOS>MOLECULE
*****
 31 34 0 0 0
SMALL
GASTEIGER

@<TRIPOS>ATOM
      1 N         140.6170  141.3539  165.0833 N.pl3   1  UNL1       -0.1766
      2 C         140.7672  139.9034  165.4347 C.2     1  UNL1        0.1416
      3 C         140.0747  138.8570  164.6129 C.2     1  UNL1        0.1528
      4 O         140.2249  137.4065  164.9644 O.2     1  UNL1       -0.5041
      5 C         139.2320  139.2610  163.4396 C.ar    1  UNL1        0.0540
      6 C         138.5395  138.2146  162.6177 C.ar    1  UNL1        0.0044
      7 C         137.6968  138.6187  161.4445 C.ar    1  UNL1        0.0002
      8 C         137.5467  140.0692  161.0930 C.ar    1  UNL1        0.0014
      9 C         138.2391  141.1156  161.9149 C.ar    1  UNL1        0.0203
     10 C         139.0818  140.7115  163.0881 C.ar    1  UNL1        0.1283
     11 S         139.7743  141.7580  163.9100 S.O2    1  UNL1        0.0772
     12 O         140.2290  143.1075  164.3813 O.2     1  UNL1       -0.1497
     13 O         139.0895  142.6307  162.9004 O.2     1  UNL1       -0.1497
     14 H         140.7513  137.1541  165.6973 H       1  UNL1        0.2923
     15 C         141.6099  139.4993  166.6081 C.2     1  UNL1        0.2133
     16 O         142.9105  138.7856  166.3870 O.2     1  UNL1       -0.2851
     17 C         141.1519  139.8090  168.0025 C.ar    1  UNL1        0.0404
     18 C         139.7000  140.0693  168.2746 C.ar    1  UNL1        0.0032
     19 C         139.2420  140.3790  169.6690 C.ar    1  UNL1        0.0001
     20 C         140.2361  140.4284  170.7913 C.ar    1  UNL1        0.0000
     21 C         141.6880  140.1681  170.5192 C.ar    1  UNL1        0.0001
     22 C         142.1459  139.8584  169.1247 C.ar    1  UNL1        0.0032
     23 C         141.3095  142.4003  165.9052 C.3     1  UNL1        0.1847
     24 O         143.4995  142.5452  167.2956 O.2     1  UNL1       -0.2895
     25 C         142.8078  142.4336  165.9692 C.2     1  UNL1        0.1948
     26 C         143.6143  142.3552  164.7070 C.ar    1  UNL1        0.0365
     27 C         143.6584  143.5267  163.7712 C.ar    1  UNL1        0.0029
     28 C         144.4649  143.4484  162.5089 C.ar    1  UNL1        0.0001
     29 C         145.2274  142.1985  162.1824 C.ar    1  UNL1        0.0000
     30 C         145.1833  141.0271  163.1182 C.ar    1  UNL1        0.0001
     31 C         144.3768  141.1055  164.3805 C.ar    1  UNL1        0.0029
@<TRIPOS>BOND
     1    24    25    2
     2    25    23    1
     3    23     1    1
     4     1     2    1
     5     2    15    1
     6    15    16    2
     7    15    17    1
     8    17    18   ar
     9    18    19   ar
    10    19    20   ar
    11    20    21   ar
    12    21    22   ar
    13     2     3    2
    14     3     4    1
    15     3     5    1
    16     5     6   ar
    17     6     7   ar
    18     7     8   ar
    19     8     9   ar
    20     9    10   ar
    21    10    11    1
    22    11    12    2
    23    11    13    2
    24    25    26    1
    25    26    27   ar
    26    27    28   ar
    27    28    29   ar
    28    29    30   ar
    29    30    31   ar
    30    11     1    1
    31    31    26   ar
    32    22    17   ar
    33    10     5   ar
    34     4    14    1
@<TRIPOS>MOLECULE
*****
 31 34 0 0 0
SMALL
GASTEIGER

@<TRIPOS>ATOM
      1 N         143.3114  140.9257  162.1907 N.pl3   1  UNL1       -0.1766
      2 C         142.7244  139.5909  162.5425 C.2     1  UNL1        0.1416
      3 C         142.4580  138.5814  161.4656 C.2     1  UNL1        0.1528
      4 O         141.8710  137.2466  161.8175 O.2     1  UNL1       -0.5041
      5 C         142.7786  138.9065  160.0368 C.ar    1  UNL1        0.0540
      6 C         142.5123  137.8970  158.9599 C.ar    1  UNL1        0.0044
      7 C         142.8329  138.2222  157.5311 C.ar    1  UNL1        0.0002
      8 C         143.4199  139.5569  157.1793 C.ar    1  UNL1        0.0014
      9 C         143.6863  140.5665  158.2562 C.ar    1  UNL1        0.0203
     10 C         143.3656  140.2413  159.6849 C.ar    1  UNL1        0.1283
     11 S         143.6320  141.2509  160.7619 S.O2    1  UNL1        0.0772
     12 O         144.0616  142.5274  161.4223 O.2     1  UNL1       -0.1497
     13 O         144.1018  142.0194  159.5624 O.2     1  UNL1       -0.1497
     14 H         141.6708  137.0434  162.7100 H       1  UNL1        0.2923
     15 C         142.4038  139.2658  163.9714 C.2     1  UNL1        0.2133
     16 O         143.4768  138.7447  164.8809 O.2     1  UNL1       -0.2851
     17 C         141.0103  139.4617  164.4906 C.ar    1  UNL1        0.0404
     18 C         140.6957  139.1613  165.9262 C.ar    1  UNL1        0.0032
     19 C         139.3021  139.3572  166.4455 C.ar    1  UNL1        0.0001
     20 C         138.2231  139.8535  165.5292 C.ar    1  UNL1        0.0000
     21 C         138.5378  140.1539  164.0936 C.ar    1  UNL1        0.0001
     22 C         139.9314  139.9580  163.5744 C.ar    1  UNL1        0.0032
     23 C         143.5778  141.9353  163.2677 C.3     1  UNL1        0.1847
     24 O         141.6340  143.6332  162.9694 O.2     1  UNL1       -0.2895
     25 C         142.4450  142.7284  163.8490 C.2     1  UNL1        0.1948
     26 C         142.1233  142.6167  165.3098 C.ar    1  UNL1        0.0365
     27 C         143.1868  142.2004  166.2823 C.ar    1  UNL1        0.0029
     28 C         142.8651  142.0887  167.7431 C.ar    1  UNL1        0.0001
     29 C         141.4798  142.3932  168.2314 C.ar    1  UNL1        0.0000
     30 C         140.4164  142.8095  167.2589 C.ar    1  UNL1        0.0001
     31 C         140.7381  142.9212  165.7981 C.ar    1  UNL1        0.0029
@<TRIPOS>BOND
     1    24    25    2
     2    25    23    1
     3    23     1    1
     4     1     2    1
     5     2    15    1
     6    15    16    2
     7    15    17    1
     8    17    18   ar
     9    18    19   ar
    10    19    20   ar
    11    20    21   ar
    12    21    22   ar
    13     2     3    2
    14     3     4    1
    15     3     5    1
    16     5     6   ar
    17     6     7   ar
    18     7     8   ar
    19     8     9   ar
    20     9    10   ar
    21    10    11    1
    22    11    12    2
    23    11    13    2
    24    25    26    1
    25    26    27   ar
    26    27    28   ar
    27    28    29   ar
    28    29    30   ar
    29    30    31   ar
    30    11     1    1
    31    31    26   ar
    32    22    17   ar
    33    10     5   ar
    34     4    14    1
@<TRIPOS>MOLECULE
*****
 31 34 0 0 0
SMALL
GASTEIGER

@<TRIPOS>ATOM
      1 N         140.5049  143.3813  162.8836 N.pl3   1  UNL1       -0.1766
      2 C         139.2651  142.5435  162.7785 C.2     1  UNL1        0.1416
      3 C         138.6337  142.3030  161.4393 C.2     1  UNL1        0.1528
      4 O         137.3939  141.4653  161.3342 O.2     1  UNL1       -0.5041
      5 C         139.2422  142.9003  160.2051 C.ar    1  UNL1        0.0540
      6 C         138.6108  142.6598  158.8659 C.ar    1  UNL1        0.0044
      7 C         139.2193  143.2570  157.6318 C.ar    1  UNL1        0.0002
      8 C         140.4591  144.0947  157.7369 C.ar    1  UNL1        0.0014
      9 C         141.0905  144.3352  159.0761 C.ar    1  UNL1        0.0203
     10 C         140.4820  143.7380  160.3102 C.ar    1  UNL1        0.1283
     11 S         141.1134  143.9785  161.6495 S.O2    1  UNL1        0.0772
     12 O         142.0716  144.4879  162.6850 O.2     1  UNL1       -0.1497
     13 O         142.0547  144.7526  160.7749 O.2     1  UNL1       -0.1497
     14 H         137.0138  141.0922  162.1051 H       1  UNL1        0.2923
     15 C         138.6566  141.9463  164.0127 C.2     1  UNL1        0.2133
     16 O         137.7947  142.7879  164.9065 O.2     1  UNL1       -0.2851
     17 C         138.9100  140.5076  164.3529 C.ar    1  UNL1        0.0404
     18 C         138.2227  139.8832  165.5309 C.ar    1  UNL1        0.0032
     19 C         138.4761  138.4445  165.8712 C.ar    1  UNL1        0.0001
     20 C         139.4169  137.6301  165.0335 C.ar    1  UNL1        0.0000
     21 C         140.1043  138.2545  163.8555 C.ar    1  UNL1        0.0001
     22 C         139.8508  139.6933  163.5152 C.ar    1  UNL1        0.0032
     23 C         141.1362  143.6218  164.2229 C.3     1  UNL1        0.1847
     24 O         143.3807  142.3137  164.1814 O.2     1  UNL1       -0.2895
     25 C         142.0506  142.5916  164.8168 C.2     1  UNL1        0.1948
     26 C         141.6349  141.8393  166.0461 C.ar    1  UNL1        0.0365
     27 C         142.1311  140.4423  166.2742 C.ar    1  UNL1        0.0029
     28 C         141.7154  139.6900  167.5035 C.ar    1  UNL1        0.0001
     29 C         140.8034  140.3348  168.5048 C.ar    1  UNL1        0.0000
     30 C         140.3072  141.7319  168.2768 C.ar    1  UNL1        0.0001
     31 C         140.7229  142.4841  167.0474 C.ar    1  UNL1        0.0029
@<TRIPOS>BOND
     1    24    25    2
     2    25    23    1
     3    23     1    1
     4     1     2    1
     5     2    15    1
     6    15    16    2
     7    15    17    1
     8    17    18   ar
     9    18    19   ar
    10    19    20   ar
    11    20    21   ar
    12    21    22   ar
    13     2     3    2
    14     3     4    1
    15     3     5    1
    16     5     6   ar
    17     6     7   ar
    18     7     8   ar
    19     8     9   ar
    20     9    10   ar
    21    10    11    1
    22    11    12    2
    23    11    13    2
    24    25    26    1
    25    26    27   ar
    26    27    28   ar
    27    28    29   ar
    28    29    30   ar
    29    30    31   ar
    30    11     1    1
    31    31    26   ar
    32    22    17   ar
    33    10     5   ar
    34     4    14    1
