@<TRIPOS>MOLECULE
*****
 39 43 0 0 0
SMALL
GASTEIGER

@<TRIPOS>ATOM
      1 C         139.5061  139.1745  166.4132 C.3     1  UNL1        0.0546
      2 C         139.0937  139.8554  167.6845 C.3     1  UNL1        0.0180
      3 C         140.3010  140.5356  168.2588 C.3     1  UNL1        0.0311
      4 C         140.7923  141.3767  169.3994 C.3     1  UNL1        0.0955
      5 N         142.2545  141.6360  169.1880 N.am    1  UNL1       -0.2639
      6 C         143.1475  142.4359  170.0896 C.2     1  UNL1        0.3008
      7 N         142.5906  143.0614  171.3340 N.am    1  UNL1       -0.3132
      8 O         144.5974  142.6101  169.7468 O.2     1  UNL1       -0.2528
      9 C         142.6669  140.9551  167.9167 C.3     1  UNL1        0.1035
     10 C         141.4596  140.2750  167.3424 C.3     1  UNL1        0.0902
     11 C         140.9683  139.4338  166.2017 C.3     1  UNL1        0.0261
     12 H         141.6390  142.9471  171.5590 H       1  UNL1        0.1465
     13 H         143.1767  143.5864  171.9257 H       1  UNL1        0.1465
     14 C         142.6182  140.0144  166.4260 C.2     1  UNL1        0.2267
     15 O         143.6009  138.9283  166.7496 O.2     1  UNL1       -0.2748
     16 N         142.7941  140.8399  165.1859 N.am    1  UNL1       -0.2750
     17 C         143.9527  140.5793  164.2696 C.3     1  UNL1        0.1000
     18 C         144.1285  141.4048  163.0296 C.3     1  UNL1        0.0670
     19 C         143.1458  142.4908  162.7059 C.ar    1  UNL1        0.0583
     20 N         143.3217  143.3163  161.4659 N.ar    1  UNL1       -0.2484
     21 C         142.3390  144.4024  161.1423 C.ar    1  UNL1        0.1023
     22 C         141.1804  144.6630  162.0587 C.ar    1  UNL1        0.0902
     23 C         141.0045  143.8375  163.2987 C.ar    1  UNL1        0.0040
     24 C         141.9872  142.7514  163.6223 C.ar    1  UNL1        0.0113
     25 C         141.8114  141.9260  164.8623 C.3     1  UNL1        0.1213
     26 C         140.1976  145.7490  161.7351 C.3     1  UNL1        0.4200
     27 F         139.2149  146.8351  161.4115 F       1  UNL1       -0.1658
     28 F         139.6037  145.6203  163.1065 F       1  UNL1       -0.1658
     29 F         140.7916  145.8778  160.3637 F       1  UNL1       -0.1658
     30 N         138.6131  138.3747  165.5115 N.3     1  UNL1       -0.2975
     31 H         138.9153  137.4032  165.5842 H       1  UNL1        0.1232
     32 C         138.1390  140.0720  163.6025 C.3     1  UNL1        0.1591
     33 C         138.0673  140.3949  162.1395 C.3     1  UNL1        0.1729
     34 O         138.3979  139.3433  161.1223 O.3     1  UNL1       -0.3511
     35 C         138.8003  137.9687  161.5681 C.3     1  UNL1        0.1437
     36 C         138.8720  137.6458  163.0312 C.3     1  UNL1        0.0503
     37 C         138.5414  138.6975  164.0484 C.3     1  UNL1        0.0865
     38 C         137.7275  142.5644  164.2100 C.3     1  UNL1        0.1742
     39 O         137.8084  141.1236  164.6197 O.3     1  UNL1       -0.3496
@<TRIPOS>BOND
     1    38    39    1
     2    39    32    1
     3    32    33    1
     4    33    34    1
     5    34    35    1
     6    35    36    1
     7    36    37    1
     8    37    30    1
     9     1    30    1
    10     1     2    1
    11     3     2    1
    12     3     4    1
    13     4     5    1
    14     5     6   am
    15     6     7   am
    16     6     8    2
    17     5     9    1
    18     9    10    1
    19    10    14    1
    20    14    15    2
    21    14    16   am
    22    16    17    1
    23    17    18    1
    24    18    19    1
    25    19    20   ar
    26    20    21   ar
    27    21    22   ar
    28    22    26    1
    29    26    27    1
    30    26    28    1
    31    26    29    1
    32    22    23   ar
    33    23    24   ar
    34    24    25    1
    35    10    11    1
    36    37    32    1
    37    11     1    1
    38    10     3    1
    39    25    16    1
    40    24    19   ar
    41    30    31    1
    42     7    12    1
    43     7    13    1
@<TRIPOS>MOLECULE
*****
 39 43 0 0 0
SMALL
GASTEIGER

@<TRIPOS>ATOM
      1 C         139.2930  138.7226  165.7003 C.3     1  UNL1        0.0546
      2 C         138.4608  139.1766  166.8628 C.3     1  UNL1        0.0180
      3 C         139.3598  139.8974  167.8230 C.3     1  UNL1        0.0311
      4 C         139.4012  140.6234  169.1350 C.3     1  UNL1        0.0955
      5 N         140.8146  141.0636  169.3768 N.am    1  UNL1       -0.2639
      6 C         141.3090  141.8242  170.5715 C.2     1  UNL1        0.3008
      7 N         140.3543  142.2119  171.6615 N.am    1  UNL1       -0.3132
      8 O         142.7581  142.1972  170.6760 O.2     1  UNL1       -0.2528
      9 C         141.6468  140.6096  168.2144 C.3     1  UNL1        0.1035
     10 C         140.7478  139.8889  167.2541 C.3     1  UNL1        0.0902
     11 C         140.7064  139.1628  165.9422 C.3     1  UNL1        0.0261
     12 H         139.4032  141.9672  171.5928 H       1  UNL1        0.1465
     13 H         140.6788  142.7112  172.4455 H       1  UNL1        0.1465
     14 C         142.1356  139.8803  166.6851 C.2     1  UNL1        0.2267
     15 O         143.1514  138.9042  167.2002 O.2     1  UNL1       -0.2748
     16 N         142.5077  140.8479  165.6010 N.am    1  UNL1       -0.2750
     17 C         143.8956  140.8394  165.0320 C.3     1  UNL1        0.1000
     18 C         144.2676  141.8070  163.9479 C.3     1  UNL1        0.0670
     19 C         143.2518  142.7831  163.4328 C.ar    1  UNL1        0.0583
     20 N         143.6240  143.7507  162.3486 N.ar    1  UNL1       -0.2484
     21 C         142.6082  144.7269  161.8335 C.ar    1  UNL1        0.1023
     22 C         141.2203  144.7354  162.4026 C.ar    1  UNL1        0.0902
     23 C         140.8482  143.7678  163.4866 C.ar    1  UNL1        0.0040
     24 C         141.8640  142.7917  164.0018 C.ar    1  UNL1        0.0113
     25 C         141.4919  141.8241  165.0858 C.3     1  UNL1        0.1213
     26 C         140.2045  145.7115  161.8874 C.3     1  UNL1        0.4200
     27 F         139.1887  146.6877  161.3723 F       1  UNL1       -0.1658
     28 F         140.9660  145.8247  160.6001 F       1  UNL1       -0.1658
     29 F         139.4429  145.5984  163.1748 F       1  UNL1       -0.1658
     30 N         138.7986  137.9620  164.5057 N.3     1  UNL1       -0.2975
     31 H         139.3764  137.1248  164.4298 H       1  UNL1        0.1232
     32 C         139.8465  138.2487  162.1457 C.3     1  UNL1        0.1591
     33 C         139.8432  138.8965  160.7928 C.3     1  UNL1        0.1729
     34 O         138.7887  139.9056  160.4471 O.3     1  UNL1       -0.3511
     35 C         137.7373  140.2669  161.4542 C.3     1  UNL1        0.1437
     36 C         137.7406  139.6190  162.8071 C.3     1  UNL1        0.0503
     37 C         138.7953  138.6099  163.1528 C.3     1  UNL1        0.0865
     38 C         142.2623  137.6961  162.9261 C.3     1  UNL1        0.1742
     39 O         140.9011  137.2396  162.4915 O.3     1  UNL1       -0.3496
@<TRIPOS>BOND
     1    38    39    1
     2    39    32    1
     3    32    33    1
     4    33    34    1
     5    34    35    1
     6    35    36    1
     7    36    37    1
     8    37    30    1
     9     1    30    1
    10     1     2    1
    11     3     2    1
    12     3     4    1
    13     4     5    1
    14     5     6   am
    15     6     7   am
    16     6     8    2
    17     5     9    1
    18     9    10    1
    19    10    14    1
    20    14    15    2
    21    14    16   am
    22    16    17    1
    23    17    18    1
    24    18    19    1
    25    19    20   ar
    26    20    21   ar
    27    21    22   ar
    28    22    26    1
    29    26    27    1
    30    26    28    1
    31    26    29    1
    32    22    23   ar
    33    23    24   ar
    34    24    25    1
    35    10    11    1
    36    37    32    1
    37    11     1    1
    38    10     3    1
    39    25    16    1
    40    24    19   ar
    41    30    31    1
    42     7    12    1
    43     7    13    1
@<TRIPOS>MOLECULE
*****
 39 43 0 0 0
SMALL
GASTEIGER

@<TRIPOS>ATOM
      1 C         139.6637  139.2680  165.8705 C.3     1  UNL1        0.0546
      2 C         139.1097  140.1572  166.9439 C.3     1  UNL1        0.0180
      3 C         140.2639  140.7924  167.6611 C.3     1  UNL1        0.0311
      4 C         140.6349  141.7346  168.7678 C.3     1  UNL1        0.0955
      5 N         142.1315  141.8202  168.8215 N.am    1  UNL1       -0.2639
      6 C         142.9333  142.6495  169.7804 C.2     1  UNL1        0.3008
      7 N         142.2366  143.4942  170.8056 N.am    1  UNL1       -0.3132
      8 O         144.4317  142.6340  169.7141 O.2     1  UNL1       -0.2528
      9 C         142.6855  140.9310  167.7481 C.3     1  UNL1        0.1035
     10 C         141.5313  140.2958  167.0309 C.3     1  UNL1        0.0902
     11 C         141.1604  139.3536  165.9242 C.3     1  UNL1        0.0261
     12 H         141.2532  143.5044  170.8492 H       1  UNL1        0.1465
     13 H         142.7629  144.0385  171.4350 H       1  UNL1        0.1465
     14 C         142.7986  139.7991  166.4007 C.2     1  UNL1        0.2267
     15 O         143.6354  138.7735  167.1064 O.2     1  UNL1       -0.2748
     16 N         143.2292  140.3280  165.0646 N.am    1  UNL1       -0.2750
     17 C         144.4965  139.8314  164.4344 C.3     1  UNL1        0.1000
     18 C         144.9271  140.3603  163.0985 C.3     1  UNL1        0.0670
     19 C         144.0904  141.3859  162.3927 C.ar    1  UNL1        0.0583
     20 N         144.5210  141.9148  161.0567 N.ar    1  UNL1       -0.2484
     21 C         143.6842  142.9404  160.3510 C.ar    1  UNL1        0.1023
     22 C         142.4169  143.4370  160.9813 C.ar    1  UNL1        0.0902
     23 C         141.9863  142.9081  162.3172 C.ar    1  UNL1        0.0040
     24 C         142.8231  141.8825  163.0230 C.ar    1  UNL1        0.0113
     25 C         142.3925  141.3536  164.3589 C.3     1  UNL1        0.1213
     26 C         141.5801  144.4626  160.2755 C.3     1  UNL1        0.4200
     27 F         140.7434  145.4882  159.5698 F       1  UNL1       -0.1658
     28 F         140.6483  144.5105  161.4500 F       1  UNL1       -0.1658
     29 F         142.5120  144.4147  159.1011 F       1  UNL1       -0.1658
     30 N         138.8619  138.4387  164.9115 N.3     1  UNL1       -0.2975
     31 H         139.3022  137.5192  164.8780 H       1  UNL1        0.1232
     32 C         139.4956  138.2479  162.3992 C.3     1  UNL1        0.1591
     33 C         139.3253  138.6985  160.9786 C.3     1  UNL1        0.1729
     34 O         138.3510  139.7906  160.6499 O.3     1  UNL1       -0.3511
     35 C         137.5470  140.4321  161.7418 C.3     1  UNL1        0.1437
     36 C         137.7173  139.9815  163.1623 C.3     1  UNL1        0.0503
     37 C         138.6916  138.8893  163.4910 C.3     1  UNL1        0.0865
     38 C         141.9010  137.4921  163.0261 C.3     1  UNL1        0.1742
     39 O         140.4699  137.1558  162.7279 O.3     1  UNL1       -0.3496
@<TRIPOS>BOND
     1    38    39    1
     2    39    32    1
     3    32    33    1
     4    33    34    1
     5    34    35    1
     6    35    36    1
     7    36    37    1
     8    37    30    1
     9     1    30    1
    10     1     2    1
    11     3     2    1
    12     3     4    1
    13     4     5    1
    14     5     6   am
    15     6     7   am
    16     6     8    2
    17     5     9    1
    18     9    10    1
    19    10    14    1
    20    14    15    2
    21    14    16   am
    22    16    17    1
    23    17    18    1
    24    18    19    1
    25    19    20   ar
    26    20    21   ar
    27    21    22   ar
    28    22    26    1
    29    26    27    1
    30    26    28    1
    31    26    29    1
    32    22    23   ar
    33    23    24   ar
    34    24    25    1
    35    10    11    1
    36    37    32    1
    37    11     1    1
    38    10     3    1
    39    25    16    1
    40    24    19   ar
    41    30    31    1
    42     7    12    1
    43     7    13    1
@<TRIPOS>MOLECULE
*****
 39 43 0 0 0
SMALL
GASTEIGER

@<TRIPOS>ATOM
      1 C         139.9959  137.9063  164.0922 C.3     1  UNL1        0.0546
      2 C         138.7577  137.9755  164.9360 C.3     1  UNL1        0.0180
      3 C         139.0998  138.7031  166.2023 C.3     1  UNL1        0.0311
      4 C         138.5461  139.1955  167.5065 C.3     1  UNL1        0.0955
      5 N         139.6534  139.8803  168.2513 N.am    1  UNL1       -0.2639
      6 C         139.5421  140.5217  169.6028 C.2     1  UNL1        0.3008
      7 N         138.2310  140.5129  170.3314 N.am    1  UNL1       -0.3132
      8 O         140.7419  141.1719  170.2255 O.2     1  UNL1       -0.2528
      9 C         140.8916  139.8111  167.4075 C.3     1  UNL1        0.1035
     10 C         140.5495  139.0836  166.1412 C.3     1  UNL1        0.0902
     11 C         141.1033  138.5912  164.8370 C.3     1  UNL1        0.0261
     12 H         137.4436  140.0861  169.9227 H       1  UNL1        0.1465
     13 H         138.1580  140.9338  171.2184 H       1  UNL1        0.1465
     14 C         141.9992  139.4640  166.0800 C.2     1  UNL1        0.2267
     15 O         143.0311  138.5945  166.7350 O.2     1  UNL1       -0.2748
     16 N         142.4169  140.7141  165.3637 N.am    1  UNL1       -0.2750
     17 C         143.8665  141.0946  165.3025 C.3     1  UNL1        0.1000
     18 C         144.2842  142.3445  164.5863 C.3     1  UNL1        0.0670
     19 C         143.2523  143.2141  163.9313 C.ar    1  UNL1        0.0583
     20 N         143.6700  144.4641  163.2150 N.ar    1  UNL1       -0.2484
     21 C         142.6381  145.3336  162.5600 C.ar    1  UNL1        0.1023
     22 C         141.1884  144.9531  162.6212 C.ar    1  UNL1        0.0902
     23 C         140.7707  143.7031  163.3375 C.ar    1  UNL1        0.0040
     24 C         141.8027  142.8336  163.9925 C.ar    1  UNL1        0.0113
     25 C         141.3850  141.5836  164.7087 C.3     1  UNL1        0.1213
     26 C         140.1565  145.8226  161.9662 C.3     1  UNL1        0.4200
     27 F         139.1246  146.6921  161.3112 F       1  UNL1       -0.1658
     28 F         139.3210  145.7686  163.2108 F       1  UNL1       -0.1658
     29 F         140.9920  145.8767  160.7217 F       1  UNL1       -0.1658
     30 N         140.1073  137.2649  162.7408 N.3     1  UNL1       -0.2975
     31 H         140.6954  136.4394  162.8542 H       1  UNL1        0.1232
     32 C         139.7811  138.9568  160.7962 C.3     1  UNL1        0.1591
     33 C         140.3422  139.7329  159.6417 C.3     1  UNL1        0.1729
     34 O         141.7905  139.5931  159.2772 O.3     1  UNL1       -0.3511
     35 C         142.6778  138.6772  160.0671 C.3     1  UNL1        0.1437
     36 C         142.1167  137.9012  161.2217 C.3     1  UNL1        0.0503
     37 C         140.6683  138.0410  161.5862 C.3     1  UNL1        0.0865
     38 C         137.8746  140.2690  161.9765 C.3     1  UNL1        0.1742
     39 O         138.3329  139.0966  161.1608 O.3     1  UNL1       -0.3496
@<TRIPOS>BOND
     1    38    39    1
     2    39    32    1
     3    32    33    1
     4    33    34    1
     5    34    35    1
     6    35    36    1
     7    36    37    1
     8    37    30    1
     9     1    30    1
    10     1     2    1
    11     3     2    1
    12     3     4    1
    13     4     5    1
    14     5     6   am
    15     6     7   am
    16     6     8    2
    17     5     9    1
    18     9    10    1
    19    10    14    1
    20    14    15    2
    21    14    16   am
    22    16    17    1
    23    17    18    1
    24    18    19    1
    25    19    20   ar
    26    20    21   ar
    27    21    22   ar
    28    22    26    1
    29    26    27    1
    30    26    28    1
    31    26    29    1
    32    22    23   ar
    33    23    24   ar
    34    24    25    1
    35    10    11    1
    36    37    32    1
    37    11     1    1
    38    10     3    1
    39    25    16    1
    40    24    19   ar
    41    30    31    1
    42     7    12    1
    43     7    13    1
@<TRIPOS>MOLECULE
*****
 39 43 0 0 0
SMALL
GASTEIGER

@<TRIPOS>ATOM
      1 C         144.1950  141.9346  165.1878 C.3     1  UNL1        0.0546
      2 C         143.7555  142.9606  166.1899 C.3     1  UNL1        0.0180
      3 C         142.8821  142.2775  167.2001 C.3     1  UNL1        0.0311
      4 C         142.0707  142.4894  168.4438 C.3     1  UNL1        0.0955
      5 N         141.4689  141.1722  168.8347 N.am    1  UNL1       -0.2639
      6 C         140.5831  140.9245  170.0196 C.2     1  UNL1        0.3008
      7 N         140.2272  142.0548  170.9392 N.am    1  UNL1       -0.3132
      8 O         140.0534  139.5465  170.2850 O.2     1  UNL1       -0.2528
      9 C         141.9084  140.1462  167.8326 C.3     1  UNL1        0.1035
     10 C         142.7818  140.8293  166.8224 C.3     1  UNL1        0.0902
     11 C         143.5932  140.6174  165.5787 C.3     1  UNL1        0.0261
     12 H         140.5749  142.9593  170.7651 H       1  UNL1        0.1465
     13 H         139.6458  141.8923  171.7169 H       1  UNL1        0.1465
     14 C         142.6815  139.3811  166.4446 C.2     1  UNL1        0.2267
     15 O         143.3214  138.3347  167.3081 O.2     1  UNL1       -0.2748
     16 N         141.9412  138.9793  165.2034 N.am    1  UNL1       -0.2750
     17 C         141.8409  137.5312  164.8256 C.3     1  UNL1        0.1000
     18 C         141.1007  137.1294  163.5844 C.3     1  UNL1        0.0670
     19 C         140.4608  138.1758  162.7210 C.ar    1  UNL1        0.0583
     20 N         139.7205  137.7740  161.4797 N.ar    1  UNL1       -0.2484
     21 C         139.0807  138.8204  160.6162 C.ar    1  UNL1        0.1023
     22 C         139.1810  140.2687  160.9940 C.ar    1  UNL1        0.0902
     23 C         139.9212  140.6704  162.2352 C.ar    1  UNL1        0.0040
     24 C         140.5611  139.6240  163.0987 C.ar    1  UNL1        0.0113
     25 C         141.3013  140.0257  164.3399 C.3     1  UNL1        0.1213
     26 C         138.5411  141.3151  160.1306 C.3     1  UNL1        0.4200
     27 F         137.9012  142.3615  159.2671 F       1  UNL1       -0.1658
     28 F         139.1789  142.3897  160.9603 F       1  UNL1       -0.1658
     29 F         137.9034  140.2404  159.3009 F       1  UNL1       -0.1658
     30 N         145.0808  142.1823  164.0028 N.3     1  UNL1       -0.2975
     31 H         145.4054  143.1466  164.0743 H       1  UNL1        0.1232
     32 C         144.1105  143.2073  161.8216 C.3     1  UNL1        0.1591
     33 C         143.5711  143.0339  160.4327 C.3     1  UNL1        0.1729
     34 O         143.4625  141.6619  159.8362 O.3     1  UNL1       -0.3511
     35 C         143.8933  140.4633  160.6286 C.3     1  UNL1        0.1437
     36 C         144.4328  140.6367  162.0175 C.3     1  UNL1        0.0503
     37 C         144.5414  142.0088  162.6140 C.3     1  UNL1        0.0865
     38 C         143.1066  145.1178  163.2680 C.3     1  UNL1        0.1742
     39 O         144.2191  144.5793  162.4181 O.3     1  UNL1       -0.3496
@<TRIPOS>BOND
     1    38    39    1
     2    39    32    1
     3    32    33    1
     4    33    34    1
     5    34    35    1
     6    35    36    1
     7    36    37    1
     8    37    30    1
     9     1    30    1
    10     1     2    1
    11     3     2    1
    12     3     4    1
    13     4     5    1
    14     5     6   am
    15     6     7   am
    16     6     8    2
    17     5     9    1
    18     9    10    1
    19    10    14    1
    20    14    15    2
    21    14    16   am
    22    16    17    1
    23    17    18    1
    24    18    19    1
    25    19    20   ar
    26    20    21   ar
    27    21    22   ar
    28    22    26    1
    29    26    27    1
    30    26    28    1
    31    26    29    1
    32    22    23   ar
    33    23    24   ar
    34    24    25    1
    35    10    11    1
    36    37    32    1
    37    11     1    1
    38    10     3    1
    39    25    16    1
    40    24    19   ar
    41    30    31    1
    42     7    12    1
    43     7    13    1
@<TRIPOS>MOLECULE
*****
 39 43 0 0 0
SMALL
GASTEIGER

@<TRIPOS>ATOM
      1 C         138.5773  141.8557  159.9513 C.3     1  UNL1        0.0546
      2 C         138.0804  140.5005  159.5434 C.3     1  UNL1        0.0180
      3 C         139.1685  139.8230  158.7642 C.3     1  UNL1        0.0311
      4 C         139.5339  138.5668  158.0305 C.3     1  UNL1        0.0955
      5 N         140.9291  138.7269  157.5035 N.am    1  UNL1       -0.2639
      6 C         141.6932  137.7103  156.7081 C.2     1  UNL1        0.3008
      7 N         141.0626  136.3909  156.3741 N.am    1  UNL1       -0.3132
      8 O         143.0880  138.0130  156.2466 O.2     1  UNL1       -0.2528
      9 C         141.4260  140.0822  157.9114 C.3     1  UNL1        0.1035
     10 C         140.3379  140.7596  158.6906 C.3     1  UNL1        0.0902
     11 C         139.9725  142.0158  159.4243 C.3     1  UNL1        0.0261
     12 H         140.1471  136.1922  156.6770 H       1  UNL1        0.1465
     13 H         141.5641  135.7237  155.8521 H       1  UNL1        0.1465
     14 C         141.5073  141.6961  158.6170 C.2     1  UNL1        0.2267
     15 O         141.6396  142.6412  157.4597 O.2     1  UNL1       -0.2748
     16 N         142.5444  141.6876  159.7007 N.am    1  UNL1       -0.2750
     17 C         143.7138  142.6242  159.6271 C.3     1  UNL1        0.1000
     18 C         144.7508  142.6156  160.7108 C.3     1  UNL1        0.0670
     19 C         144.6185  141.6705  161.8681 C.ar    1  UNL1        0.0583
     20 N         145.6556  141.6620  162.9518 N.ar    1  UNL1       -0.2484
     21 C         145.5233  140.7169  164.1091 C.ar    1  UNL1        0.1023
     22 C         144.3539  139.7803  164.1826 C.ar    1  UNL1        0.0902
     23 C         143.3169  139.7889  163.0989 C.ar    1  UNL1        0.0040
     24 C         143.4492  140.7340  161.9417 C.ar    1  UNL1        0.0113
     25 C         142.4121  140.7425  160.8580 C.3     1  UNL1        0.1213
     26 C         144.2216  138.8352  165.3399 C.3     1  UNL1        0.4200
     27 F         144.0893  137.8901  166.4972 F       1  UNL1       -0.1658
     28 F         145.7075  138.6297  165.3419 F       1  UNL1       -0.1658
     29 F         142.7358  139.0407  165.3378 F       1  UNL1       -0.1658
     30 N         137.8132  142.8724  160.7467 N.3     1  UNL1       -0.2975
     31 H         138.0250  143.7838  160.3407 H       1  UNL1        0.1232
     32 C         138.4148  144.3183  162.8197 C.3     1  UNL1        0.1591
     33 C         138.6418  144.4394  164.2975 C.3     1  UNL1        0.1729
     34 O         138.4943  143.2355  165.1801 O.3     1  UNL1       -0.3511
     35 C         138.1197  141.9105  164.5848 C.3     1  UNL1        0.1437
     36 C         137.8927  141.7895  163.1071 C.3     1  UNL1        0.0503
     37 C         138.0402  142.9934  162.2245 C.3     1  UNL1        0.0865
     38 C         139.8861  146.2203  161.8361 C.3     1  UNL1        0.1742
     39 O         138.5623  145.5221  161.9372 O.3     1  UNL1       -0.3496
@<TRIPOS>BOND
     1    38    39    1
     2    39    32    1
     3    32    33    1
     4    33    34    1
     5    34    35    1
     6    35    36    1
     7    36    37    1
     8    37    30    1
     9     1    30    1
    10     1     2    1
    11     3     2    1
    12     3     4    1
    13     4     5    1
    14     5     6   am
    15     6     7   am
    16     6     8    2
    17     5     9    1
    18     9    10    1
    19    10    14    1
    20    14    15    2
    21    14    16   am
    22    16    17    1
    23    17    18    1
    24    18    19    1
    25    19    20   ar
    26    20    21   ar
    27    21    22   ar
    28    22    26    1
    29    26    27    1
    30    26    28    1
    31    26    29    1
    32    22    23   ar
    33    23    24   ar
    34    24    25    1
    35    10    11    1
    36    37    32    1
    37    11     1    1
    38    10     3    1
    39    25    16    1
    40    24    19   ar
    41    30    31    1
    42     7    12    1
    43     7    13    1
@<TRIPOS>MOLECULE
*****
 39 43 0 0 0
SMALL
GASTEIGER

@<TRIPOS>ATOM
      1 C         142.3145  138.5391  165.5480 C.3     1  UNL1        0.0546
      2 C         143.2704  138.9396  166.6323 C.3     1  UNL1        0.0180
      3 C         142.5157  139.7603  167.6357 C.3     1  UNL1        0.0311
      4 C         142.6399  140.5150  168.9260 C.3     1  UNL1        0.0955
      5 N         141.2944  141.0881  169.2593 N.am    1  UNL1       -0.2639
      6 C         140.9629  141.9164  170.4652 C.2     1  UNL1        0.3008
      7 N         142.0290  142.2382  171.4701 N.am    1  UNL1       -0.3132
      8 O         139.5654  142.4228  170.6662 O.2     1  UNL1       -0.2528
      9 C         140.3385  140.6875  168.1750 C.3     1  UNL1        0.1035
     10 C         141.0932  139.8669  167.1715 C.3     1  UNL1        0.0902
     11 C         140.9689  139.1121  165.8813 C.3     1  UNL1        0.0261
     12 H         142.9463  141.9058  171.3382 H       1  UNL1        0.1465
     13 H         141.8115  142.7818  172.2616 H       1  UNL1        0.1465
     14 C         139.6709  139.9735  166.7074 C.2     1  UNL1        0.2267
     15 O         138.5574  139.4777  167.5817 O.2     1  UNL1       -0.2748
     16 N         139.3619  140.5759  165.3688 N.am    1  UNL1       -0.2750
     17 C         137.9396  140.6825  164.9046 C.3     1  UNL1        0.1000
     18 C         137.6306  141.2850  163.5661 C.3     1  UNL1        0.0670
     19 C         138.7441  141.7808  162.6918 C.ar    1  UNL1        0.0583
     20 N         138.4351  142.3833  161.3532 N.ar    1  UNL1       -0.2484
     21 C         139.5485  142.8791  160.4789 C.ar    1  UNL1        0.1023
     22 C         140.9710  142.7725  160.9432 C.ar    1  UNL1        0.0902
     23 C         141.2799  142.1700  162.2817 C.ar    1  UNL1        0.0040
     24 C         140.1664  141.6742  163.1560 C.ar    1  UNL1        0.0113
     25 C         140.4753  141.0718  164.4945 C.3     1  UNL1        0.1213
     26 C         142.0844  143.2683  160.0689 C.3     1  UNL1        0.4200
     27 F         143.1978  143.7641  159.1946 F       1  UNL1       -0.1658
     28 F         143.0366  143.1658  161.2234 F       1  UNL1       -0.1658
     29 F         141.1322  143.3708  158.9144 F       1  UNL1       -0.1658
     30 N         142.6460  137.7108  164.3420 N.3     1  UNL1       -0.2975
     31 H         143.5474  137.2704  164.5260 H       1  UNL1        0.1232
     32 C         141.6699  138.1387  161.9726 C.3     1  UNL1        0.1591
     33 C         141.7715  138.7858  160.6232 C.3     1  UNL1        0.1729
     34 O         142.9508  139.6522  160.2938 O.3     1  UNL1       -0.3511
     35 C         144.0286  139.8714  161.3138 C.3     1  UNL1        0.1437
     36 C         143.9270  139.2243  162.6632 C.3     1  UNL1        0.0503
     37 C         142.7476  138.3579  162.9926 C.3     1  UNL1        0.0865
     38 C         139.1993  137.8979  162.7399 C.3     1  UNL1        0.1742
     39 O         140.4905  137.2724  162.3021 O.3     1  UNL1       -0.3496
@<TRIPOS>BOND
     1    38    39    1
     2    39    32    1
     3    32    33    1
     4    33    34    1
     5    34    35    1
     6    35    36    1
     7    36    37    1
     8    37    30    1
     9     1    30    1
    10     1     2    1
    11     3     2    1
    12     3     4    1
    13     4     5    1
    14     5     6   am
    15     6     7   am
    16     6     8    2
    17     5     9    1
    18     9    10    1
    19    10    14    1
    20    14    15    2
    21    14    16   am
    22    16    17    1
    23    17    18    1
    24    18    19    1
    25    19    20   ar
    26    20    21   ar
    27    21    22   ar
    28    22    26    1
    29    26    27    1
    30    26    28    1
    31    26    29    1
    32    22    23   ar
    33    23    24   ar
    34    24    25    1
    35    10    11    1
    36    37    32    1
    37    11     1    1
    38    10     3    1
    39    25    16    1
    40    24    19   ar
    41    30    31    1
    42     7    12    1
    43     7    13    1
@<TRIPOS>MOLECULE
*****
 39 43 0 0 0
SMALL
GASTEIGER

@<TRIPOS>ATOM
      1 C         143.8643  139.2714  165.1338 C.3     1  UNL1        0.0546
      2 C         143.4551  138.4566  166.3248 C.3     1  UNL1        0.0180
      3 C         142.9111  139.3933  167.3624 C.3     1  UNL1        0.0311
      4 C         142.3219  139.4686  168.7398 C.3     1  UNL1        0.0955
      5 N         142.0307  140.9089  169.0413 N.am    1  UNL1       -0.2639
      6 C         141.4350  141.4409  170.3110 C.2     1  UNL1        0.3008
      7 N         141.0739  140.5000  171.4219 N.am    1  UNL1       -0.3132
      8 O         141.2003  142.9139  170.4697 O.2     1  UNL1       -0.2528
      9 C         142.4399  141.7237  167.8503 C.3     1  UNL1        0.1035
     10 C         142.9840  140.7870  166.8126 C.3     1  UNL1        0.0902
     11 C         143.5731  140.7117  165.4353 C.3     1  UNL1        0.0261
     12 H         141.2280  139.5332  171.3178 H       1  UNL1        0.1465
     13 H         140.6829  140.8492  172.2553 H       1  UNL1        0.1465
     14 C         143.0569  142.1807  166.2628 C.2     1  UNL1        0.2267
     15 O         143.9978  143.1784  166.8705 O.2     1  UNL1       -0.2748
     16 N         142.1890  142.5767  165.1053 N.am    1  UNL1       -0.2750
     17 C         142.2619  143.9704  164.5555 C.3     1  UNL1        0.1000
     18 C         141.3940  144.3663  163.3980 C.3     1  UNL1        0.0670
     19 C         140.4531  143.3686  162.7903 C.ar    1  UNL1        0.0583
     20 N         139.5851  143.7646  161.6327 N.ar    1  UNL1       -0.2484
     21 C         138.6442  142.7669  161.0250 C.ar    1  UNL1        0.1023
     22 C         138.5713  141.3732  161.5749 C.ar    1  UNL1        0.0902
     23 C         139.4392  140.9772  162.7324 C.ar    1  UNL1        0.0040
     24 C         140.3801  141.9750  163.3401 C.ar    1  UNL1        0.0113
     25 C         141.2481  141.5790  164.4976 C.3     1  UNL1        0.1213
     26 C         137.6304  140.3755  160.9672 C.3     1  UNL1        0.4200
     27 F         136.6895  139.3778  160.3595 F       1  UNL1       -0.1658
     28 F         137.3951  139.7731  162.3206 F       1  UNL1       -0.1658
     29 F         137.8657  140.9779  159.6138 F       1  UNL1       -0.1658
     30 N         144.4601  138.7394  163.8641 N.3     1  UNL1       -0.2975
     31 H         145.3877  139.1547  163.7774 H       1  UNL1        0.1232
     32 C         144.1324  140.1380  161.6992 C.3     1  UNL1        0.1591
     33 C         143.4335  140.3626  160.3911 C.3     1  UNL1        0.1729
     34 O         142.3635  139.4133  159.9398 O.3     1  UNL1       -0.3511
     35 C         141.9922  138.2393  160.7965 C.3     1  UNL1        0.1437
     36 C         142.6911  138.0147  162.1046 C.3     1  UNL1        0.0503
     37 C         143.7612  138.9640  162.5560 C.3     1  UNL1        0.0865
     38 C         144.8649  142.5233  162.4232 C.3     1  UNL1        0.1742
     39 O         145.2024  141.0873  162.1506 O.3     1  UNL1       -0.3496
@<TRIPOS>BOND
     1    38    39    1
     2    39    32    1
     3    32    33    1
     4    33    34    1
     5    34    35    1
     6    35    36    1
     7    36    37    1
     8    37    30    1
     9     1    30    1
    10     1     2    1
    11     3     2    1
    12     3     4    1
    13     4     5    1
    14     5     6   am
    15     6     7   am
    16     6     8    2
    17     5     9    1
    18     9    10    1
    19    10    14    1
    20    14    15    2
    21    14    16   am
    22    16    17    1
    23    17    18    1
    24    18    19    1
    25    19    20   ar
    26    20    21   ar
    27    21    22   ar
    28    22    26    1
    29    26    27    1
    30    26    28    1
    31    26    29    1
    32    22    23   ar
    33    23    24   ar
    34    24    25    1
    35    10    11    1
    36    37    32    1
    37    11     1    1
    38    10     3    1
    39    25    16    1
    40    24    19   ar
    41    30    31    1
    42     7    12    1
    43     7    13    1
@<TRIPOS>MOLECULE
*****
 39 43 0 0 0
SMALL
GASTEIGER

@<TRIPOS>ATOM
      1 C         138.7400  141.9037  159.8748 C.3     1  UNL1        0.0546
      2 C         138.1669  140.9326  158.8856 C.3     1  UNL1        0.0180
      3 C         139.2498  139.9679  158.5025 C.3     1  UNL1        0.0311
      4 C         139.5649  138.7714  157.6545 C.3     1  UNL1        0.0955
      5 N         141.0019  138.4069  157.8827 N.am    1  UNL1       -0.2639
      6 C         141.7368  137.2707  157.2354 C.2     1  UNL1        0.3008
      7 N         141.0284  136.3779  156.2602 N.am    1  UNL1       -0.3132
      8 O         143.1802  137.0273  157.5634 O.2     1  UNL1       -0.2528
      9 C         141.5750  139.3781  158.8719 C.3     1  UNL1        0.1035
     10 C         140.4921  140.3428  159.2550 C.3     1  UNL1        0.0902
     11 C         140.1770  141.5392  160.1030 C.3     1  UNL1        0.0261
     12 H         140.0811  136.5377  156.0449 H       1  UNL1        0.1465
     13 H         141.5108  135.6322  155.8354 H       1  UNL1        0.1465
     14 C         141.7344  140.7177  160.0074 C.2     1  UNL1        0.2267
     15 O         142.9238  141.2574  159.2698 O.2     1  UNL1       -0.2748
     16 N         141.7873  140.5530  161.4974 N.am    1  UNL1       -0.2750
     17 C         143.0296  140.9279  162.2498 C.3     1  UNL1        0.1000
     18 C         143.0824  140.7631  163.7397 C.3     1  UNL1        0.0670
     19 C         141.8930  140.2234  164.4773 C.ar    1  UNL1        0.0583
     20 N         141.9459  140.0586  165.9673 N.ar    1  UNL1       -0.2484
     21 C         140.7565  139.5189  166.7049 C.ar    1  UNL1        0.1023
     22 C         139.5142  139.1440  165.9524 C.ar    1  UNL1        0.0902
     23 C         139.4613  139.3088  164.4625 C.ar    1  UNL1        0.0040
     24 C         140.6507  139.8485  163.7249 C.ar    1  UNL1        0.0113
     25 C         140.5979  140.0132  162.2350 C.3     1  UNL1        0.1213
     26 C         138.3248  138.6043  166.6900 C.3     1  UNL1        0.4200
     27 F         137.1353  138.0646  167.4275 F       1  UNL1       -0.1658
     28 F         138.5194  139.6375  167.7599 F       1  UNL1       -0.1658
     29 F         138.1301  137.5711  165.6201 F       1  UNL1       -0.1658
     30 N         138.0051  143.0400  160.5221 N.3     1  UNL1       -0.2975
     31 H         138.3078  143.8927  160.0514 H       1  UNL1        0.1232
     32 C         138.8085  144.5384  162.4865 C.3     1  UNL1        0.1591
     33 C         138.9525  144.7825  163.9595 C.3     1  UNL1        0.1729
     34 O         138.4370  143.7722  164.9411 O.3     1  UNL1       -0.3511
     35 C         137.7775  142.5177  164.4497 C.3     1  UNL1        0.1437
     36 C         137.6336  142.2736  162.9767 C.3     1  UNL1        0.0503
     37 C         138.1491  143.2840  161.9951 C.3     1  UNL1        0.0865
     38 C         140.6926  145.3883  160.9124 C.3     1  UNL1        0.1742
     39 O         139.3239  145.5488  161.5050 O.3     1  UNL1       -0.3496
@<TRIPOS>BOND
     1    38    39    1
     2    39    32    1
     3    32    33    1
     4    33    34    1
     5    34    35    1
     6    35    36    1
     7    36    37    1
     8    37    30    1
     9     1    30    1
    10     1     2    1
    11     3     2    1
    12     3     4    1
    13     4     5    1
    14     5     6   am
    15     6     7   am
    16     6     8    2
    17     5     9    1
    18     9    10    1
    19    10    14    1
    20    14    15    2
    21    14    16   am
    22    16    17    1
    23    17    18    1
    24    18    19    1
    25    19    20   ar
    26    20    21   ar
    27    21    22   ar
    28    22    26    1
    29    26    27    1
    30    26    28    1
    31    26    29    1
    32    22    23   ar
    33    23    24   ar
    34    24    25    1
    35    10    11    1
    36    37    32    1
    37    11     1    1
    38    10     3    1
    39    25    16    1
    40    24    19   ar
    41    30    31    1
    42     7    12    1
    43     7    13    1
