@<TRIPOS>MOLECULE
*****
 38 42 0 0 0
SMALL
GASTEIGER

@<TRIPOS>ATOM
      1 N         139.8387  140.1992  167.2407 N.3     1  UNL1       -0.2722
      2 C         138.6062  139.6297  166.6033 C.3     1  UNL1        0.0738
      3 C         138.3365  139.8677  165.1470 C.3     1  UNL1        0.0374
      4 C         139.2994  140.6753  164.3282 C.3     1  UNL1        0.0832
      5 C         140.5320  141.2449  164.9656 C.3     1  UNL1        0.1103
      6 C         140.8016  141.0068  166.4218 C.3     1  UNL1        0.0829
      7 N         139.0297  140.9134  162.8720 N.am    1  UNL1       -0.3006
      8 C         139.1702  139.7886  161.8896 C.2     1  UNL1        0.2669
      9 O         139.5803  138.4258  162.3633 O.2     1  UNL1       -0.2684
     10 H         138.7605  141.8079  162.5610 H       1  UNL1        0.1497
     11 C         138.9005  140.0267  160.4333 C.ar    1  UNL1        0.1761
     12 C         138.6029  141.3521  159.7969 C.ar    1  UNL1        0.0673
     13 C         138.3995  141.1256  158.3281 C.ar    1  UNL1        0.1792
     14 O         138.5714  139.6604  158.0567 O.2     1  UNL1       -0.3532
     15 N         138.8810  138.9813  159.3578 N.ar    1  UNL1       -0.0723
     16 C         138.0803  142.1794  157.3095 C.ar    1  UNL1        0.0648
     17 C         139.0288  143.3201  157.0879 C.ar    1  UNL1        0.0077
     18 C         138.7096  144.3739  156.0693 C.ar    1  UNL1        0.0299
     19 C         137.4419  144.2871  155.2723 C.ar    1  UNL1        0.1424
     20 F         137.1227  145.3410  154.2537 F       1  UNL1       -0.2041
     21 C         136.4933  143.1464  155.4938 C.ar    1  UNL1        0.0593
     22 C         136.8125  142.0926  156.5124 C.ar    1  UNL1        0.1453
     23 F         135.8640  140.9519  156.7340 F       1  UNL1       -0.2040
     24 C         141.4949  142.0525  164.1467 C.2     1  UNL1        0.2252
     25 O         142.1531  141.4423  162.9449 O.2     1  UNL1       -0.2750
     26 N         141.7997  143.4704  164.5297 N.am    1  UNL1       -0.3010
     27 H         141.3678  143.8709  165.3185 H       1  UNL1        0.1497
     28 C         142.7627  144.2781  163.7109 C.3     1  UNL1        0.1089
     29 C         144.0396  144.9368  163.2803 C.3     1  UNL1        0.0274
     30 C         144.0011  144.1301  164.5443 C.3     1  UNL1        0.0274
     31 C         141.8587  144.7064  162.5932 C.ar    1  UNL1        0.1549
     32 N         140.5674  145.4057  162.8992 N.ar    1  UNL1       -0.2276
     33 C         139.6634  145.8341  161.7815 C.ar    1  UNL1        0.1019
     34 C         140.0505  145.5632  160.3580 C.ar    1  UNL1        0.0413
     35 C         141.3418  144.8640  160.0519 C.ar    1  UNL1        0.1019
     36 N         142.2459  144.4356  161.1696 N.ar    1  UNL1       -0.2276
     37 C         139.2195  140.5792  169.7351 C.3     1  UNL1        0.0188
     38 C         140.1084  139.9612  168.6969 C.3     1  UNL1        0.0722
@<TRIPOS>BOND
     1    37    38    1
     2    38     1    1
     3     1     2    1
     4     2     3    1
     5     3     4    1
     6     4     7    1
     7     7     8   am
     8     8     9    2
     9     8    11    1
    10    11    12   ar
    11    12    13   ar
    12    13    16    1
    13    16    17   ar
    14    17    18   ar
    15    18    19   ar
    16    19    20    1
    17    19    21   ar
    18    21    22   ar
    19    22    23    1
    20    13    14   ar
    21    14    15   ar
    22     4     5    1
    23     5    24    1
    24    24    25    2
    25    24    26   am
    26    26    28    1
    27    28    31    1
    28    31    32   ar
    29    32    33   ar
    30    33    34   ar
    31    34    35   ar
    32    35    36   ar
    33    28    29    1
    34    29    30    1
    35     5     6    1
    36     6     1    1
    37    15    11   ar
    38    30    28    1
    39    22    16   ar
    40    36    31   ar
    41     7    10    1
    42    26    27    1
@<TRIPOS>MOLECULE
*****
 38 42 0 0 0
SMALL
GASTEIGER

@<TRIPOS>ATOM
      1 N         140.8725  144.4225  158.1080 N.3     1  UNL1       -0.2722
      2 C         140.8254  145.4992  159.1513 C.3     1  UNL1        0.0738
      3 C         140.9959  145.1482  160.5996 C.3     1  UNL1        0.0374
      4 C         141.2136  143.7204  161.0047 C.3     1  UNL1        0.0832
      5 C         141.2607  142.6437  159.9614 C.3     1  UNL1        0.1103
      6 C         141.0901  142.9948  158.5131 C.3     1  UNL1        0.0829
      7 N         141.3842  143.3694  162.4530 N.am    1  UNL1       -0.3006
      8 C         142.7352  143.4745  163.0961 C.2     1  UNL1        0.2669
      9 O         143.9157  143.9307  162.2909 O.2     1  UNL1       -0.2684
     10 H         140.6094  143.0700  162.9815 H       1  UNL1        0.1497
     11 C         142.9057  143.1235  164.5445 C.ar    1  UNL1        0.1761
     12 C         141.9212  142.3731  165.3917 C.ar    1  UNL1        0.0673
     13 C         142.4978  142.2471  166.7708 C.ar    1  UNL1        0.1792
     14 O         143.8386  142.9195  166.7758 O.2     1  UNL1       -0.3532
     15 N         144.0907  143.4611  165.3999 N.ar    1  UNL1       -0.0723
     16 C         141.8476  141.5679  167.9395 C.ar    1  UNL1        0.0648
     17 C         142.3818  140.2578  168.4378 C.ar    1  UNL1        0.0077
     18 C         141.7316  139.5786  169.6065 C.ar    1  UNL1        0.0299
     19 C         140.5473  140.2094  170.2769 C.ar    1  UNL1        0.1424
     20 F         139.8972  139.5301  171.4457 F       1  UNL1       -0.2041
     21 C         140.0131  141.5195  169.7786 C.ar    1  UNL1        0.0593
     22 C         140.6633  142.1987  168.6099 C.ar    1  UNL1        0.1453
     23 F         140.1291  143.5088  168.1116 F       1  UNL1       -0.2040
     24 C         141.4784  141.2159  160.3665 C.2     1  UNL1        0.2252
     25 O         140.4085  140.4771  161.1145 O.2     1  UNL1       -0.2750
     26 N         142.7658  140.5269  160.0235 N.am    1  UNL1       -0.3010
     27 H         143.4680  141.0118  159.5325 H       1  UNL1        0.1497
     28 C         142.9835  139.0991  160.4285 C.3     1  UNL1        0.1089
     29 C         143.0386  137.6026  160.3433 C.3     1  UNL1        0.0274
     30 C         142.5913  138.4053  159.1578 C.3     1  UNL1        0.0274
     31 C         143.4513  139.2972  161.8398 C.ar    1  UNL1        0.1549
     32 N         142.7922  138.5488  162.9603 N.ar    1  UNL1       -0.2276
     33 C         143.2600  138.7468  164.3718 C.ar    1  UNL1        0.1019
     34 C         144.3867  139.6932  164.6626 C.ar    1  UNL1        0.0413
     35 C         145.0458  140.4416  163.5421 C.ar    1  UNL1        0.1019
     36 N         144.5780  140.2436  162.1307 N.ar    1  UNL1       -0.2276
     37 C         139.3279  144.9820  156.0952 C.3     1  UNL1        0.0188
     38 C         140.7019  144.7735  156.6597 C.3     1  UNL1        0.0722
@<TRIPOS>BOND
     1    37    38    1
     2    38     1    1
     3     1     2    1
     4     2     3    1
     5     3     4    1
     6     4     7    1
     7     7     8   am
     8     8     9    2
     9     8    11    1
    10    11    12   ar
    11    12    13   ar
    12    13    16    1
    13    16    17   ar
    14    17    18   ar
    15    18    19   ar
    16    19    20    1
    17    19    21   ar
    18    21    22   ar
    19    22    23    1
    20    13    14   ar
    21    14    15   ar
    22     4     5    1
    23     5    24    1
    24    24    25    2
    25    24    26   am
    26    26    28    1
    27    28    31    1
    28    31    32   ar
    29    32    33   ar
    30    33    34   ar
    31    34    35   ar
    32    35    36   ar
    33    28    29    1
    34    29    30    1
    35     5     6    1
    36     6     1    1
    37    15    11   ar
    38    30    28    1
    39    22    16   ar
    40    36    31   ar
    41     7    10    1
    42    26    27    1
@<TRIPOS>MOLECULE
*****
 38 42 0 0 0
SMALL
GASTEIGER

@<TRIPOS>ATOM
      1 N         139.1766  143.4142  157.7649 N.3     1  UNL1       -0.2722
      2 C         138.2854  142.2691  158.1450 C.3     1  UNL1        0.0738
      3 C         138.4985  141.5524  159.4454 C.3     1  UNL1        0.0374
      4 C         139.6028  141.9808  160.3657 C.3     1  UNL1        0.0832
      5 C         140.4940  143.1259  159.9856 C.3     1  UNL1        0.1103
      6 C         140.2809  143.8426  158.6852 C.3     1  UNL1        0.0829
      7 N         139.8159  141.2641  161.6660 N.am    1  UNL1       -0.3006
      8 C         138.7261  141.2399  162.6964 C.2     1  UNL1        0.2669
      9 O         137.4232  141.9325  162.4265 O.2     1  UNL1       -0.2684
     10 H         140.6710  140.8096  161.8432 H       1  UNL1        0.1497
     11 C         138.9392  140.5233  163.9968 C.ar    1  UNL1        0.1761
     12 C         139.6951  141.0503  165.1805 C.ar    1  UNL1        0.0673
     13 C         139.6568  140.0064  166.2570 C.ar    1  UNL1        0.1792
     14 O         138.8774  138.8343  165.7387 O.2     1  UNL1       -0.3532
     15 N         138.4339  139.1537  164.3419 N.ar    1  UNL1       -0.0723
     16 C         140.2874  140.1156  167.6137 C.ar    1  UNL1        0.0648
     17 C         139.4257  140.2846  168.8298 C.ar    1  UNL1        0.0077
     18 C         140.0562  140.3937  170.1864 C.ar    1  UNL1        0.0299
     19 C         141.5485  140.3339  170.3269 C.ar    1  UNL1        0.1424
     20 F         142.1789  140.4431  171.6837 F       1  UNL1       -0.2041
     21 C         142.4101  140.1650  169.1108 C.ar    1  UNL1        0.0593
     22 C         141.7796  140.0558  167.7542 C.ar    1  UNL1        0.1453
     23 F         142.6413  139.8868  166.5381 F       1  UNL1       -0.2040
     24 C         141.5984  143.5543  160.9059 C.2     1  UNL1        0.2252
     25 O         142.9358  143.9376  160.3450 O.2     1  UNL1       -0.2750
     26 N         141.3654  143.5995  162.3870 N.am    1  UNL1       -0.3010
     27 H         140.4876  143.3479  162.7550 H       1  UNL1        0.1497
     28 C         142.4697  144.0279  163.3073 C.3     1  UNL1        0.1089
     29 C         143.2930  144.8949  164.2131 C.3     1  UNL1        0.0274
     30 C         142.0441  145.4391  163.5854 C.3     1  UNL1        0.0274
     31 C         143.2787  142.7655  163.3486 C.ar    1  UNL1        0.1549
     32 N         142.5916  141.4328  163.3076 N.ar    1  UNL1       -0.2276
     33 C         143.4005  140.1703  163.3490 C.ar    1  UNL1        0.1019
     34 C         144.8966  140.2405  163.4314 C.ar    1  UNL1        0.0413
     35 C         145.5837  141.5732  163.4724 C.ar    1  UNL1        0.1019
     36 N         144.7748  142.8357  163.4310 N.ar    1  UNL1       -0.2276
     37 C         140.0235  145.0486  155.9315 C.3     1  UNL1        0.0188
     38 C         138.9635  144.1309  156.4646 C.3     1  UNL1        0.0722
@<TRIPOS>BOND
     1    37    38    1
     2    38     1    1
     3     1     2    1
     4     2     3    1
     5     3     4    1
     6     4     7    1
     7     7     8   am
     8     8     9    2
     9     8    11    1
    10    11    12   ar
    11    12    13   ar
    12    13    16    1
    13    16    17   ar
    14    17    18   ar
    15    18    19   ar
    16    19    20    1
    17    19    21   ar
    18    21    22   ar
    19    22    23    1
    20    13    14   ar
    21    14    15   ar
    22     4     5    1
    23     5    24    1
    24    24    25    2
    25    24    26   am
    26    26    28    1
    27    28    31    1
    28    31    32   ar
    29    32    33   ar
    30    33    34   ar
    31    34    35   ar
    32    35    36   ar
    33    28    29    1
    34    29    30    1
    35     5     6    1
    36     6     1    1
    37    15    11   ar
    38    30    28    1
    39    22    16   ar
    40    36    31   ar
    41     7    10    1
    42    26    27    1
@<TRIPOS>MOLECULE
*****
 38 42 0 0 0
SMALL
GASTEIGER

@<TRIPOS>ATOM
      1 N         142.5595  139.2135  157.8741 N.3     1  UNL1       -0.2722
      2 C         142.5771  137.9626  158.7016 C.3     1  UNL1        0.0738
      3 C         142.3537  138.0399  160.1828 C.3     1  UNL1        0.0374
      4 C         142.1127  139.3682  160.8366 C.3     1  UNL1        0.0832
      5 C         142.0952  140.6192  160.0092 C.3     1  UNL1        0.1103
      6 C         142.3186  140.5418  158.5279 C.3     1  UNL1        0.0829
      7 N         141.8893  139.4455  162.3179 N.am    1  UNL1       -0.3006
      8 C         143.0517  139.3290  163.2588 C.2     1  UNL1        0.2669
      9 O         144.4375  139.1351  162.7184 O.2     1  UNL1       -0.2684
     10 H         140.9798  139.5727  162.6725 H       1  UNL1        0.1497
     11 C         142.8283  139.4063  164.7400 C.ar    1  UNL1        0.1761
     12 C         142.0009  140.4336  165.4545 C.ar    1  UNL1        0.0673
     13 C         142.0543  140.1321  166.9229 C.ar    1  UNL1        0.1792
     14 O         142.9146  138.9185  167.1160 O.2     1  UNL1       -0.3532
     15 N         143.3929  138.4700  165.7669 N.ar    1  UNL1       -0.0723
     16 C         141.3679  140.9079  168.0077 C.ar    1  UNL1        0.0648
     17 C         140.0962  140.3894  168.6109 C.ar    1  UNL1        0.0077
     18 C         139.4098  141.1653  169.6957 C.ar    1  UNL1        0.0299
     19 C         139.9951  142.4596  170.1774 C.ar    1  UNL1        0.1424
     20 F         139.3086  143.2354  171.2623 F       1  UNL1       -0.2041
     21 C         141.2668  142.9782  169.5743 C.ar    1  UNL1        0.0593
     22 C         141.9532  142.2023  168.4894 C.ar    1  UNL1        0.1453
     23 F         143.2250  142.7208  167.8863 F       1  UNL1       -0.2040
     24 C         141.8542  141.9476  160.6630 C.2     1  UNL1        0.2252
     25 O         142.8080  142.4554  161.7034 O.2     1  UNL1       -0.2750
     26 N         140.6595  142.7680  160.2764 N.am    1  UNL1       -0.3010
     27 H         140.0335  142.4347  159.5935 H       1  UNL1        0.1497
     28 C         140.4185  144.0964  160.9302 C.3     1  UNL1        0.1089
     29 C         140.4524  145.5770  161.1683 C.3     1  UNL1        0.0274
     30 C         141.1261  144.9960  159.9606 C.3     1  UNL1        0.0274
     31 C         139.6273  143.6580  162.1268 C.ar    1  UNL1        0.1549
     32 N         138.1998  143.2269  161.9649 N.ar    1  UNL1       -0.2276
     33 C         137.4085  142.7885  163.1615 C.ar    1  UNL1        0.1019
     34 C         138.0447  142.7812  164.5198 C.ar    1  UNL1        0.0413
     35 C         139.4723  143.2124  164.6816 C.ar    1  UNL1        0.1019
     36 N         140.2636  143.6508  163.4851 N.ar    1  UNL1       -0.2276
     37 C         144.1666  139.2885  155.8341 C.3     1  UNL1        0.0188
     38 C         142.7830  139.1362  156.3929 C.3     1  UNL1        0.0722
@<TRIPOS>BOND
     1    37    38    1
     2    38     1    1
     3     1     2    1
     4     2     3    1
     5     3     4    1
     6     4     7    1
     7     7     8   am
     8     8     9    2
     9     8    11    1
    10    11    12   ar
    11    12    13   ar
    12    13    16    1
    13    16    17   ar
    14    17    18   ar
    15    18    19   ar
    16    19    20    1
    17    19    21   ar
    18    21    22   ar
    19    22    23    1
    20    13    14   ar
    21    14    15   ar
    22     4     5    1
    23     5    24    1
    24    24    25    2
    25    24    26   am
    26    26    28    1
    27    28    31    1
    28    31    32   ar
    29    32    33   ar
    30    33    34   ar
    31    34    35   ar
    32    35    36   ar
    33    28    29    1
    34    29    30    1
    35     5     6    1
    36     6     1    1
    37    15    11   ar
    38    30    28    1
    39    22    16   ar
    40    36    31   ar
    41     7    10    1
    42    26    27    1
@<TRIPOS>MOLECULE
*****
 38 42 0 0 0
SMALL
GASTEIGER

@<TRIPOS>ATOM
      1 N         141.4919  140.1691  168.4082 N.3     1  UNL1       -0.2722
      2 C         142.6157  139.2616  168.0044 C.3     1  UNL1        0.0738
      3 C         143.0316  139.1772  166.5656 C.3     1  UNL1        0.0374
      4 C         142.3235  140.0003  165.5308 C.3     1  UNL1        0.0832
      5 C         141.1996  140.9079  165.9346 C.3     1  UNL1        0.1103
      6 C         140.7838  140.9923  167.3734 C.3     1  UNL1        0.0829
      7 N         142.7393  139.9159  164.0920 N.am    1  UNL1       -0.3006
      8 C         142.3037  138.7517  163.2525 C.2     1  UNL1        0.2669
      9 O         141.4522  137.6719  163.8517 O.2     1  UNL1       -0.2684
     10 H         143.2982  140.6246  163.6988 H       1  UNL1        0.1497
     11 C         142.7195  138.6673  161.8137 C.ar    1  UNL1        0.1761
     12 C         141.8587  138.2130  160.6723 C.ar    1  UNL1        0.0673
     13 C         142.6764  138.2873  159.4170 C.ar    1  UNL1        0.1792
     14 O         144.0425  138.7876  159.7825 O.2     1  UNL1       -0.3532
     15 N         144.0691  139.0224  161.2637 N.ar    1  UNL1       -0.0723
     16 C         142.2098  137.9250  158.0382 C.ar    1  UNL1        0.0648
     17 C         142.7928  136.7334  157.3381 C.ar    1  UNL1        0.0077
     18 C         142.3263  136.3711  155.9594 C.ar    1  UNL1        0.0299
     19 C         141.2766  137.2004  155.2807 C.ar    1  UNL1        0.1424
     20 F         140.8102  136.8379  153.9019 F       1  UNL1       -0.2041
     21 C         140.6936  138.3920  155.9807 C.ar    1  UNL1        0.0593
     22 C         141.1602  138.7543  157.3595 C.ar    1  UNL1        0.1453
     23 F         140.5772  139.9459  158.0596 F       1  UNL1       -0.2040
     24 C         140.4915  141.7311  164.8997 C.2     1  UNL1        0.2252
     25 O         141.2790  142.4424  163.8396 O.2     1  UNL1       -0.2750
     26 N         138.9959  141.8429  164.9249 N.am    1  UNL1       -0.3010
     27 H         138.4790  141.3760  165.6207 H       1  UNL1        0.1497
     28 C         138.2878  142.6661  163.8900 C.3     1  UNL1        0.1089
     29 C         137.6144  143.8385  163.2404 C.3     1  UNL1        0.0274
     30 C         138.1419  143.9573  164.6395 C.3     1  UNL1        0.0274
     31 C         138.1878  141.6609  162.7813 C.ar    1  UNL1        0.1549
     32 N         137.9354  140.2168  163.0989 N.ar    1  UNL1       -0.2276
     33 C         137.8355  139.2114  161.9901 C.ar    1  UNL1        0.1019
     34 C         137.9879  139.6501  160.5639 C.ar    1  UNL1        0.0413
     35 C         138.2404  141.0942  160.2463 C.ar    1  UNL1        0.1019
     36 N         138.3403  142.0996  161.3551 N.ar    1  UNL1       -0.2276
     37 C         139.6388  140.4989  170.1991 C.3     1  UNL1        0.0188
     38 C         141.0760  140.2535  169.8470 C.3     1  UNL1        0.0722
@<TRIPOS>BOND
     1    37    38    1
     2    38     1    1
     3     1     2    1
     4     2     3    1
     5     3     4    1
     6     4     7    1
     7     7     8   am
     8     8     9    2
     9     8    11    1
    10    11    12   ar
    11    12    13   ar
    12    13    16    1
    13    16    17   ar
    14    17    18   ar
    15    18    19   ar
    16    19    20    1
    17    19    21   ar
    18    21    22   ar
    19    22    23    1
    20    13    14   ar
    21    14    15   ar
    22     4     5    1
    23     5    24    1
    24    24    25    2
    25    24    26   am
    26    26    28    1
    27    28    31    1
    28    31    32   ar
    29    32    33   ar
    30    33    34   ar
    31    34    35   ar
    32    35    36   ar
    33    28    29    1
    34    29    30    1
    35     5     6    1
    36     6     1    1
    37    15    11   ar
    38    30    28    1
    39    22    16   ar
    40    36    31   ar
    41     7    10    1
    42    26    27    1
@<TRIPOS>MOLECULE
*****
 38 42 0 0 0
SMALL
GASTEIGER

@<TRIPOS>ATOM
      1 N         142.5922  140.1996  157.3985 N.3     1  UNL1       -0.2722
      2 C         142.6468  138.8317  158.0116 C.3     1  UNL1        0.0738
      3 C         142.3513  138.6516  159.4711 C.3     1  UNL1        0.0374
      4 C         142.0011  139.8393  160.3176 C.3     1  UNL1        0.0832
      5 C         141.9464  141.2072  159.7045 C.3     1  UNL1        0.1103
      6 C         142.2420  141.3873  158.2450 C.3     1  UNL1        0.0829
      7 N         141.7055  139.6592  161.7771 N.am    1  UNL1       -0.3006
      8 C         140.2867  139.5193  162.2433 C.2     1  UNL1        0.2669
      9 O         139.1634  139.5596  161.2500 O.2     1  UNL1       -0.2684
     10 H         142.4428  139.6328  162.4290 H       1  UNL1        0.1497
     11 C         139.9912  139.3392  163.7029 C.ar    1  UNL1        0.1761
     12 C         140.7809  139.9163  164.8402 C.ar    1  UNL1        0.0673
     13 C         140.1318  139.4841  166.1215 C.ar    1  UNL1        0.1792
     14 O         138.9410  138.6399  165.7762 O.2     1  UNL1       -0.3532
     15 N         138.8541  138.5504  164.2814 N.ar    1  UNL1       -0.0723
     16 C         140.5927  139.8346  167.5053 C.ar    1  UNL1        0.0648
     17 C         139.6159  140.3769  168.5062 C.ar    1  UNL1        0.0077
     18 C         140.0768  140.7274  169.8899 C.ar    1  UNL1        0.0299
     19 C         141.5144  140.5356  170.2727 C.ar    1  UNL1        0.1424
     20 F         141.9752  140.8862  171.6565 F       1  UNL1       -0.2041
     21 C         142.4912  139.9933  169.2718 C.ar    1  UNL1        0.0593
     22 C         142.0303  139.6428  167.8881 C.ar    1  UNL1        0.1453
     23 F         143.0070  139.1005  166.8872 F       1  UNL1       -0.2040
     24 C         141.5962  142.3950  160.5510 C.2     1  UNL1        0.2252
     25 O         142.4918  142.7982  161.6848 O.2     1  UNL1       -0.2750
     26 N         140.3506  143.1797  160.2637 N.am    1  UNL1       -0.3010
     27 H         139.7628  142.9151  159.5195 H       1  UNL1        0.1497
     28 C         140.0004  144.3675  161.1101 C.3     1  UNL1        0.1089
     29 C         139.8929  145.7938  161.5620 C.3     1  UNL1        0.0274
     30 C         140.5775  145.4666  160.2681 C.3     1  UNL1        0.0274
     31 C         139.3018  143.6809  162.2461 C.ar    1  UNL1        0.1549
     32 N         138.1354  142.7781  161.9733 N.ar    1  UNL1       -0.2276
     33 C         137.4367  142.0914  163.1092 C.ar    1  UNL1        0.1019
     34 C         137.9043  142.3076  164.5179 C.ar    1  UNL1        0.0413
     35 C         139.0707  143.2105  164.7908 C.ar    1  UNL1        0.1019
     36 N         139.7694  143.8971  163.6548 N.ar    1  UNL1       -0.2276
     37 C         144.2694  140.7585  155.4947 C.3     1  UNL1        0.0188
     38 C         142.8877  140.3797  155.9390 C.3     1  UNL1        0.0722
@<TRIPOS>BOND
     1    37    38    1
     2    38     1    1
     3     1     2    1
     4     2     3    1
     5     3     4    1
     6     4     7    1
     7     7     8   am
     8     8     9    2
     9     8    11    1
    10    11    12   ar
    11    12    13   ar
    12    13    16    1
    13    16    17   ar
    14    17    18   ar
    15    18    19   ar
    16    19    20    1
    17    19    21   ar
    18    21    22   ar
    19    22    23    1
    20    13    14   ar
    21    14    15   ar
    22     4     5    1
    23     5    24    1
    24    24    25    2
    25    24    26   am
    26    26    28    1
    27    28    31    1
    28    31    32   ar
    29    32    33   ar
    30    33    34   ar
    31    34    35   ar
    32    35    36   ar
    33    28    29    1
    34    29    30    1
    35     5     6    1
    36     6     1    1
    37    15    11   ar
    38    30    28    1
    39    22    16   ar
    40    36    31   ar
    41     7    10    1
    42    26    27    1
@<TRIPOS>MOLECULE
*****
 38 42 0 0 0
SMALL
GASTEIGER

@<TRIPOS>ATOM
      1 N         138.3282  141.5858  157.2384 N.3     1  UNL1       -0.2722
      2 C         138.7579  140.1657  157.4586 C.3     1  UNL1        0.0738
      3 C         139.3563  139.7583  158.7723 C.3     1  UNL1        0.0374
      4 C         139.5250  140.7709  159.8659 C.3     1  UNL1        0.0832
      5 C         139.0953  142.1911  159.6457 C.3     1  UNL1        0.1103
      6 C         138.4969  142.5985  158.3320 C.3     1  UNL1        0.0829
      7 N         140.1234  140.3635  161.1796 N.am    1  UNL1       -0.3006
      8 C         139.2463  139.8131  162.2648 C.2     1  UNL1        0.2669
      9 O         137.7707  139.6701  162.0363 O.2     1  UNL1       -0.2684
     10 H         141.0919  140.4574  161.3296 H       1  UNL1        0.1497
     11 C         139.8448  139.4056  163.5785 C.ar    1  UNL1        0.1761
     12 C         139.6638  140.1152  164.8877 C.ar    1  UNL1        0.0673
     13 C         140.4364  139.3652  165.9321 C.ar    1  UNL1        0.1792
     14 O         141.0948  138.1921  165.2683 O.2     1  UNL1       -0.3532
     15 N         140.7291  138.2172  163.8138 N.ar    1  UNL1       -0.0723
     16 C         140.5336  139.7251  167.3850 C.ar    1  UNL1        0.0648
     17 C         139.2874  139.9887  168.1772 C.ar    1  UNL1        0.0077
     18 C         139.3846  140.3486  169.6302 C.ar    1  UNL1        0.0299
     19 C         140.7278  140.4449  170.2909 C.ar    1  UNL1        0.1424
     20 F         140.8248  140.8048  171.7438 F       1  UNL1       -0.2041
     21 C         141.9739  140.1812  169.4986 C.ar    1  UNL1        0.0593
     22 C         141.8768  139.8213  168.0457 C.ar    1  UNL1        0.1453
     23 F         143.1229  139.5577  167.2534 F       1  UNL1       -0.2040
     24 C         139.2640  143.2039  160.7393 C.2     1  UNL1        0.2252
     25 O         139.6403  144.6162  160.4021 O.2     1  UNL1       -0.2750
     26 N         139.0563  142.8043  162.1701 N.am    1  UNL1       -0.3010
     27 H         138.8094  141.8774  162.3915 H       1  UNL1        0.1497
     28 C         139.2250  143.8171  163.2637 C.3     1  UNL1        0.1089
     29 C         138.8738  144.8164  164.3258 C.3     1  UNL1        0.0274
     30 C         137.7868  144.1300  163.5529 C.3     1  UNL1        0.0274
     31 C         140.7218  143.8558  163.3542 C.ar    1  UNL1        0.1549
     32 N         141.5195  142.6065  163.1244 N.ar    1  UNL1       -0.2276
     33 C         143.0163  142.6451  163.2149 C.ar    1  UNL1        0.1019
     34 C         143.7153  143.9330  163.5351 C.ar    1  UNL1        0.0413
     35 C         142.9176  145.1824  163.7649 C.ar    1  UNL1        0.1019
     36 N         141.4208  145.1437  163.6744 N.ar    1  UNL1       -0.2276
     37 C         136.2407  141.9866  155.7446 C.3     1  UNL1        0.0188
     38 C         137.7298  141.9932  155.9247 C.3     1  UNL1        0.0722
@<TRIPOS>BOND
     1    37    38    1
     2    38     1    1
     3     1     2    1
     4     2     3    1
     5     3     4    1
     6     4     7    1
     7     7     8   am
     8     8     9    2
     9     8    11    1
    10    11    12   ar
    11    12    13   ar
    12    13    16    1
    13    16    17   ar
    14    17    18   ar
    15    18    19   ar
    16    19    20    1
    17    19    21   ar
    18    21    22   ar
    19    22    23    1
    20    13    14   ar
    21    14    15   ar
    22     4     5    1
    23     5    24    1
    24    24    25    2
    25    24    26   am
    26    26    28    1
    27    28    31    1
    28    31    32   ar
    29    32    33   ar
    30    33    34   ar
    31    34    35   ar
    32    35    36   ar
    33    28    29    1
    34    29    30    1
    35     5     6    1
    36     6     1    1
    37    15    11   ar
    38    30    28    1
    39    22    16   ar
    40    36    31   ar
    41     7    10    1
    42    26    27    1
@<TRIPOS>MOLECULE
*****
 38 42 0 0 0
SMALL
GASTEIGER

@<TRIPOS>ATOM
      1 N         142.4551  139.9971  167.4152 N.3     1  UNL1       -0.2722
      2 C         143.0747  138.7848  166.7858 C.3     1  UNL1        0.0738
      3 C         142.8969  138.5276  165.3187 C.3     1  UNL1        0.0374
      4 C         142.0995  139.4827  164.4811 C.3     1  UNL1        0.0832
      5 C         141.4799  140.6951  165.1105 C.3     1  UNL1        0.1103
      6 C         141.6577  140.9523  166.5775 C.3     1  UNL1        0.0829
      7 N         141.9217  139.2256  163.0140 N.am    1  UNL1       -0.3006
      8 C         143.0411  139.5198  162.0599 C.2     1  UNL1        0.2669
      9 O         144.3384  140.0712  162.5729 O.2     1  UNL1       -0.2684
     10 H         141.0703  138.8636  162.6774 H       1  UNL1        0.1497
     11 C         142.8633  139.2626  160.5929 C.ar    1  UNL1        0.1761
     12 C         141.5538  139.1523  159.8694 C.ar    1  UNL1        0.0673
     13 C         141.8450  138.8921  158.4211 C.ar    1  UNL1        0.1792
     14 O         143.3343  138.8415  158.2495 O.2     1  UNL1       -0.3532
     15 N         143.9636  139.0705  159.5917 N.ar    1  UNL1       -0.0723
     16 C         140.8257  138.7138  157.3351 C.ar    1  UNL1        0.0648
     17 C         140.4695  137.3364  156.8597 C.ar    1  UNL1        0.0077
     18 C         139.4503  137.1581  155.7738 C.ar    1  UNL1        0.0299
     19 C         138.7872  138.3571  155.1632 C.ar    1  UNL1        0.1424
     20 F         137.7680  138.1787  154.0773 F       1  UNL1       -0.2041
     21 C         139.1434  139.7345  155.6386 C.ar    1  UNL1        0.0593
     22 C         140.1627  139.9128  156.7246 C.ar    1  UNL1        0.1453
     23 F         140.5189  141.2901  157.2000 F       1  UNL1       -0.2040
     24 C         140.6824  141.6503  164.2728 C.2     1  UNL1        0.2252
     25 O         141.3656  142.4829  163.2287 O.2     1  UNL1       -0.2750
     26 N         139.2017  141.7730  164.4793 N.am    1  UNL1       -0.3010
     27 H         138.7534  141.2266  165.1646 H       1  UNL1        0.1497
     28 C         138.4042  142.7283  163.6417 C.3     1  UNL1        0.1089
     29 C         137.6553  143.9644  163.2402 C.3     1  UNL1        0.0274
     30 C         138.2671  143.8686  164.6064 C.3     1  UNL1        0.0274
     31 C         138.2645  141.9196  162.3861 C.ar    1  UNL1        0.1549
     32 N         137.7610  140.5083  162.4553 N.ar    1  UNL1       -0.2276
     33 C         137.6212  139.6995  161.1997 C.ar    1  UNL1        0.1019
     34 C         137.9850  140.3020  159.8751 C.ar    1  UNL1        0.0413
     35 C         138.4885  141.7132  159.8060 C.ar    1  UNL1        0.1019
     36 N         138.6283  142.5220  161.0615 N.ar    1  UNL1       -0.2276
     37 C         142.4603  139.1354  169.8661 C.3     1  UNL1        0.0188
     38 C         142.6329  140.2543  168.8822 C.3     1  UNL1        0.0722
@<TRIPOS>BOND
     1    37    38    1
     2    38     1    1
     3     1     2    1
     4     2     3    1
     5     3     4    1
     6     4     7    1
     7     7     8   am
     8     8     9    2
     9     8    11    1
    10    11    12   ar
    11    12    13   ar
    12    13    16    1
    13    16    17   ar
    14    17    18   ar
    15    18    19   ar
    16    19    20    1
    17    19    21   ar
    18    21    22   ar
    19    22    23    1
    20    13    14   ar
    21    14    15   ar
    22     4     5    1
    23     5    24    1
    24    24    25    2
    25    24    26   am
    26    26    28    1
    27    28    31    1
    28    31    32   ar
    29    32    33   ar
    30    33    34   ar
    31    34    35   ar
    32    35    36   ar
    33    28    29    1
    34    29    30    1
    35     5     6    1
    36     6     1    1
    37    15    11   ar
    38    30    28    1
    39    22    16   ar
    40    36    31   ar
    41     7    10    1
    42    26    27    1
@<TRIPOS>MOLECULE
*****
 38 42 0 0 0
SMALL
GASTEIGER

@<TRIPOS>ATOM
      1 N         141.0423  139.1642  156.8817 N.3     1  UNL1       -0.2722
      2 C         140.3018  138.0627  157.5804 C.3     1  UNL1        0.0738
      3 C         139.7388  138.2900  158.9520 C.3     1  UNL1        0.0374
      4 C         139.9163  139.6187  159.6250 C.3     1  UNL1        0.0832
      5 C         140.6569  140.7202  158.9263 C.3     1  UNL1        0.1103
      6 C         141.2199  140.4929  157.5546 C.3     1  UNL1        0.0829
      7 N         139.3533  139.8459  160.9966 N.am    1  UNL1       -0.3006
      8 C         140.1935  139.5678  162.2077 C.2     1  UNL1        0.2669
      9 O         141.5967  139.0625  162.0472 O.2     1  UNL1       -0.2684
     10 H         138.4324  140.1776  161.1020 H       1  UNL1        0.1497
     11 C         139.6305  139.7951  163.5793 C.ar    1  UNL1        0.1761
     12 C         140.3849  140.3150  164.7671 C.ar    1  UNL1        0.0673
     13 C         139.4348  140.3835  165.9259 C.ar    1  UNL1        0.1792
     14 O         138.0933  139.9061  165.4543 O.2     1  UNL1       -0.3532
     15 N         138.2142  139.5424  164.0041 N.ar    1  UNL1       -0.0723
     16 C         139.7679  140.8480  167.3127 C.ar    1  UNL1        0.0648
     17 C         139.4245  139.9896  168.4939 C.ar    1  UNL1        0.0077
     18 C         139.7576  140.4541  169.8807 C.ar    1  UNL1        0.0299
     19 C         140.4341  141.7770  170.0864 C.ar    1  UNL1        0.1424
     20 F         140.7671  142.2414  171.4733 F       1  UNL1       -0.2041
     21 C         140.7775  142.6354  168.9052 C.ar    1  UNL1        0.0593
     22 C         140.4444  142.1709  167.5184 C.ar    1  UNL1        0.1453
     23 F         140.7878  143.0294  166.3372 F       1  UNL1       -0.2040
     24 C         140.8345  142.0490  159.5992 C.2     1  UNL1        0.2252
     25 O         142.0959  142.3441  160.3554 O.2     1  UNL1       -0.2750
     26 N         139.7508  143.0827  159.5159 N.am    1  UNL1       -0.3010
     27 H         138.9229  142.8890  159.0196 H       1  UNL1        0.1497
     28 C         139.9284  144.4115  160.1889 C.3     1  UNL1        0.1089
     29 C         140.3252  145.8425  160.4003 C.3     1  UNL1        0.0274
     30 C         140.6211  145.1673  159.0939 C.3     1  UNL1        0.0274
     31 C         139.2973  144.1170  161.5174 C.ar    1  UNL1        0.1549
     32 N         139.7524  144.8521  162.7432 N.ar    1  UNL1       -0.2276
     33 C         139.1214  144.5576  164.0718 C.ar    1  UNL1        0.1019
     34 C         138.0353  143.5282  164.1746 C.ar    1  UNL1        0.0413
     35 C         137.5802  142.7932  162.9488 C.ar    1  UNL1        0.1019
     36 N         138.2112  143.0876  161.6202 N.ar    1  UNL1       -0.2276
     37 C         140.7192  139.0587  154.3060 C.3     1  UNL1        0.0188
     38 C         141.6053  138.9369  155.5101 C.3     1  UNL1        0.0722
@<TRIPOS>BOND
     1    37    38    1
     2    38     1    1
     3     1     2    1
     4     2     3    1
     5     3     4    1
     6     4     7    1
     7     7     8   am
     8     8     9    2
     9     8    11    1
    10    11    12   ar
    11    12    13   ar
    12    13    16    1
    13    16    17   ar
    14    17    18   ar
    15    18    19   ar
    16    19    20    1
    17    19    21   ar
    18    21    22   ar
    19    22    23    1
    20    13    14   ar
    21    14    15   ar
    22     4     5    1
    23     5    24    1
    24    24    25    2
    25    24    26   am
    26    26    28    1
    27    28    31    1
    28    31    32   ar
    29    32    33   ar
    30    33    34   ar
    31    34    35   ar
    32    35    36   ar
    33    28    29    1
    34    29    30    1
    35     5     6    1
    36     6     1    1
    37    15    11   ar
    38    30    28    1
    39    22    16   ar
    40    36    31   ar
    41     7    10    1
    42    26    27    1
