@<TRIPOS>MOLECULE
*****
 34 37 0 0 0
SMALL
GASTEIGER

@<TRIPOS>ATOM
      1 C         140.6899  144.5072  159.5899 C.ar    1  UNL1        0.2204
      2 N         139.6012  144.2962  158.5799 N.ar    1  UNL1       -0.2089
      3 C         139.7234  144.8938  157.2094 C.ar    1  UNL1        0.1402
      4 C         140.9344  145.7024  156.8491 C.ar    1  UNL1        0.1773
      5 C         142.0231  145.9134  157.8592 C.ar    1  UNL1        0.1402
      6 N         141.9008  145.3158  159.2296 N.ar    1  UNL1       -0.2089
      7 N         140.3234  142.7143  163.7010 N.pl3   1  UNL1       -0.2586
      8 C         140.8443  141.8850  162.5649 C.3     1  UNL1        0.1167
      9 C         140.9665  142.4826  161.1945 C.3     1  UNL1        0.1151
     10 N         140.5677  143.9096  160.9603 N.pl3   1  UNL1       -0.2764
     11 C         140.0468  144.7389  162.0964 C.3     1  UNL1        0.0955
     12 C         139.6481  146.1658  161.8622 C.3     1  UNL1        0.0233
     13 C         139.9246  144.1413  163.4668 C.3     1  UNL1        0.1149
     14 C         140.2336  141.8468  167.4832 C.ar    1  UNL1        0.1817
     15 N         139.7926  140.5474  166.8772 N.ar    1  UNL1       -0.0586
     16 O         139.7725  140.7142  165.3867 O.2     1  UNL1       -0.3167
     17 C         140.2012  142.1167  165.0714 C.ar    1  UNL1        0.3183
     18 N         140.4862  142.8166  166.3671 N.ar    1  UNL1       -0.1779
     19 C         140.4880  143.5427  169.4349 C.3     1  UNL1        0.0081
     20 C         140.3940  142.1270  168.9480 C.3     1  UNL1        0.0621
     21 C         140.4605  140.9916  169.9260 C.3     1  UNL1        0.0081
     22 O         141.0566  146.3000  155.4788 O.3     1  UNL1       -0.4674
     23 C         139.8346  146.7998  154.7669 C.3     1  UNL1        0.2344
     24 C         139.5249  148.2675  154.7487 C.ar    1  UNL1        0.0487
     25 C         139.8551  149.0888  153.5378 C.ar    1  UNL1        0.0029
     26 C         139.5454  150.5563  153.5197 C.ar    1  UNL1        0.0183
     27 C         138.9054  151.2025  154.7125 C.ar    1  UNL1        0.1079
     28 C         138.5752  150.3812  155.9234 C.ar    1  UNL1        0.0478
     29 C         138.8849  148.9137  155.9415 C.ar    1  UNL1        0.1409
     30 F         138.5547  148.0923  157.1525 F       1  UNL1       -0.2043
     31 S         138.5957  152.6701  154.6944 S.O2    1  UNL1        0.0105
     32 C         138.2860  154.1377  154.6762 C.3     1  UNL1        0.1816
     33 O         138.2965  152.5888  153.2268 O.2     1  UNL1       -0.1686
     34 O         138.8949  152.7515  156.1620 O.2     1  UNL1       -0.1686
@<TRIPOS>BOND
     1    19    20    1
     2    20    21    1
     3    20    14    1
     4    14    15   ar
     5    15    16   ar
     6    16    17   ar
     7    17     7    1
     8     7     8    1
     9     8     9    1
    10     9    10    1
    11    10     1    1
    12     1     2   ar
    13     2     3   ar
    14     3     4   ar
    15     4    22    1
    16    22    23    1
    17    23    24    1
    18    24    25   ar
    19    25    26   ar
    20    26    27   ar
    21    27    31    1
    22    31    32    1
    23    31    33    2
    24    31    34    2
    25    27    28   ar
    26    28    29   ar
    27    29    30    1
    28     4     5   ar
    29     5     6   ar
    30    10    11    1
    31    11    12    1
    32    11    13    1
    33    17    18   ar
    34    18    14   ar
    35    13     7    1
    36     6     1   ar
    37    29    24   ar
@<TRIPOS>MOLECULE
*****
 34 37 0 0 0
SMALL
GASTEIGER

@<TRIPOS>ATOM
      1 C         141.0603  144.5872  159.5625 C.ar    1  UNL1        0.2204
      2 N         142.1783  145.3855  158.9604 N.ar    1  UNL1       -0.2089
      3 C         142.0775  145.8672  157.5433 C.ar    1  UNL1        0.1402
      4 C         140.8585  145.5506  156.7286 C.ar    1  UNL1        0.1773
      5 C         139.7404  144.7522  157.3308 C.ar    1  UNL1        0.1402
      6 N         139.8414  144.2705  158.7477 N.ar    1  UNL1       -0.2089
      7 N         141.3630  143.1420  163.8133 N.pl3   1  UNL1       -0.2586
      8 C         141.9642  142.3338  162.7019 C.3     1  UNL1        0.1167
      9 C         141.8633  142.8156  161.2849 C.3     1  UNL1        0.1151
     10 N         141.1612  144.1054  160.9795 N.pl3   1  UNL1       -0.2764
     11 C         140.5600  144.9136  162.0910 C.3     1  UNL1        0.0955
     12 C         139.8579  146.2034  161.7855 C.3     1  UNL1        0.0233
     13 C         140.6609  144.4318  163.5079 C.3     1  UNL1        0.1149
     14 C         141.0192  142.3304  167.5934 C.ar    1  UNL1        0.1817
     15 N         142.2190  141.5074  167.2282 N.ar    1  UNL1       -0.0586
     16 O         142.4938  141.7113  165.7678 O.2     1  UNL1       -0.3167
     17 C         141.4639  142.6602  165.2303 C.ar    1  UNL1        0.3183
     18 N         140.5525  143.0428  166.3586 N.ar    1  UNL1       -0.1779
     19 C         139.7750  141.2108  169.5804 C.3     1  UNL1        0.0081
     20 C         140.3956  142.4244  168.9544 C.3     1  UNL1        0.0621
     21 C         140.3927  143.7319  169.6894 C.3     1  UNL1        0.0081
     22 O         140.7576  146.0323  155.3116 O.3     1  UNL1       -0.4674
     23 C         139.4750  146.6278  154.8115 C.3     1  UNL1        0.2344
     24 C         139.2830  148.1154  154.8257 C.ar    1  UNL1        0.0487
     25 C         138.6455  148.7781  156.0107 C.ar    1  UNL1        0.0029
     26 C         138.4536  150.2657  156.0248 C.ar    1  UNL1        0.0183
     27 C         138.8991  151.0906  154.8539 C.ar    1  UNL1        0.1079
     28 C         139.5366  150.4278  153.6688 C.ar    1  UNL1        0.0478
     29 C         139.7285  148.9403  153.6547 C.ar    1  UNL1        0.1409
     30 F         140.3660  148.2775  152.4696 F       1  UNL1       -0.2043
     31 S         138.7072  152.5782  154.8680 S.O2    1  UNL1        0.0105
     32 C         138.5152  154.0658  154.8822 C.3     1  UNL1        0.1816
     33 O         138.9438  152.5946  156.3491 O.2     1  UNL1       -0.1686
     34 O         138.4706  152.5618  153.3869 O.2     1  UNL1       -0.1686
@<TRIPOS>BOND
     1    19    20    1
     2    20    21    1
     3    20    14    1
     4    14    15   ar
     5    15    16   ar
     6    16    17   ar
     7    17     7    1
     8     7     8    1
     9     8     9    1
    10     9    10    1
    11    10     1    1
    12     1     2   ar
    13     2     3   ar
    14     3     4   ar
    15     4    22    1
    16    22    23    1
    17    23    24    1
    18    24    25   ar
    19    25    26   ar
    20    26    27   ar
    21    27    31    1
    22    31    32    1
    23    31    33    2
    24    31    34    2
    25    27    28   ar
    26    28    29   ar
    27    29    30    1
    28     4     5   ar
    29     5     6   ar
    30    10    11    1
    31    11    12    1
    32    11    13    1
    33    17    18   ar
    34    18    14   ar
    35    13     7    1
    36     6     1   ar
    37    29    24   ar
@<TRIPOS>MOLECULE
*****
 34 37 0 0 0
SMALL
GASTEIGER

@<TRIPOS>ATOM
      1 C         140.8683  144.6533  159.4373 C.ar    1  UNL1        0.2204
      2 N         139.7009  144.4996  158.5082 N.ar    1  UNL1       -0.2089
      3 C         139.7658  145.0684  157.1217 C.ar    1  UNL1        0.1402
      4 C         140.9983  145.7908  156.6644 C.ar    1  UNL1        0.1773
      5 C         142.1658  145.9445  157.5936 C.ar    1  UNL1        0.1402
      6 N         142.1008  145.3758  158.9801 N.ar    1  UNL1       -0.2089
      7 N         140.6735  142.9472  163.5968 N.pl3   1  UNL1       -0.2586
      8 C         140.3857  144.4015  163.3685 C.3     1  UNL1        0.1167
      9 C         140.4507  144.9702  161.9820 C.3     1  UNL1        0.1151
     10 N         140.8034  144.0846  160.8239 N.pl3   1  UNL1       -0.2764
     11 C         141.0911  142.6303  161.0522 C.3     1  UNL1        0.0955
     12 C         141.4438  141.7446  159.8940 C.3     1  UNL1        0.0233
     13 C         141.0262  142.0616  162.4386 C.3     1  UNL1        0.1149
     14 C         139.9485  141.0516  166.9054 C.ar    1  UNL1        0.1817
     15 N         141.0687  141.9550  167.3284 N.ar    1  UNL1       -0.0586
     16 O         141.4766  142.7750  166.1405 O.2     1  UNL1       -0.3167
     17 C         140.6085  142.3784  164.9833 C.ar    1  UNL1        0.3183
     18 N         139.6641  141.3133  165.4560 N.ar    1  UNL1       -0.1779
     19 C         139.4199  140.1054  169.2666 C.3     1  UNL1        0.0081
     20 C         139.2375  140.0604  167.7784 C.3     1  UNL1        0.0621
     21 C         138.3441  139.0244  167.1633 C.3     1  UNL1        0.0081
     22 O         141.0633  146.3596  155.2779 O.3     1  UNL1       -0.4674
     23 C         139.8165  146.8671  154.6163 C.3     1  UNL1        0.2344
     24 C         139.5122  148.3360  154.6162 C.ar    1  UNL1        0.0487
     25 C         139.8386  149.1694  153.4125 C.ar    1  UNL1        0.0029
     26 C         139.5344  150.6382  153.4124 C.ar    1  UNL1        0.0183
     27 C         138.9036  151.2735  154.6159 C.ar    1  UNL1        0.1079
     28 C         138.5772  150.4402  155.8195 C.ar    1  UNL1        0.0478
     29 C         138.8815  148.9714  155.8197 C.ar    1  UNL1        0.1409
     30 F         138.5550  148.1379  157.0234 F       1  UNL1       -0.2043
     31 S         138.5994  152.7424  154.6157 S.O2    1  UNL1        0.0105
     32 C         138.2951  154.2112  154.6155 C.3     1  UNL1        0.1816
     33 O         138.2895  152.6780  153.1495 O.2     1  UNL1       -0.1686
     34 O         138.9092  152.8068  156.0819 O.2     1  UNL1       -0.1686
@<TRIPOS>BOND
     1    19    20    1
     2    20    21    1
     3    20    14    1
     4    14    15   ar
     5    15    16   ar
     6    16    17   ar
     7    17     7    1
     8     7     8    1
     9     8     9    1
    10     9    10    1
    11    10     1    1
    12     1     2   ar
    13     2     3   ar
    14     3     4   ar
    15     4    22    1
    16    22    23    1
    17    23    24    1
    18    24    25   ar
    19    25    26   ar
    20    26    27   ar
    21    27    31    1
    22    31    32    1
    23    31    33    2
    24    31    34    2
    25    27    28   ar
    26    28    29   ar
    27    29    30    1
    28     4     5   ar
    29     5     6   ar
    30    10    11    1
    31    11    12    1
    32    11    13    1
    33    17    18   ar
    34    18    14   ar
    35    13     7    1
    36     6     1   ar
    37    29    24   ar
@<TRIPOS>MOLECULE
*****
 34 37 0 0 0
SMALL
GASTEIGER

@<TRIPOS>ATOM
      1 C         138.9843  141.3711  159.8634 C.ar    1  UNL1        0.2204
      2 N         139.8262  140.1377  159.7227 N.ar    1  UNL1       -0.2089
      3 C         139.6362  138.9881  160.6675 C.ar    1  UNL1        0.1402
      4 C         138.6045  139.0721  161.7530 C.ar    1  UNL1        0.1773
      5 C         137.7626  140.3057  161.8938 C.ar    1  UNL1        0.1402
      6 N         137.9525  141.4551  160.9490 N.ar    1  UNL1       -0.2089
      7 N         139.5541  144.8196  157.0292 N.pl3   1  UNL1       -0.2586
      8 C         140.2907  144.7930  158.3356 C.3     1  UNL1        0.1167
      9 C         140.1007  143.6435  159.2803 C.3     1  UNL1        0.1151
     10 N         139.1742  142.5206  158.9186 N.pl3   1  UNL1       -0.2764
     11 C         138.4377  142.5473  157.6122 C.3     1  UNL1        0.0955
     12 C         137.5112  141.4244  157.2506 C.3     1  UNL1        0.0233
     13 C         138.6276  143.6968  156.6675 C.3     1  UNL1        0.1149
     14 C         139.5790  148.1587  155.0504 C.ar    1  UNL1        0.1817
     15 N         140.4937  147.3173  154.2105 N.ar    1  UNL1       -0.0586
     16 O         140.5957  145.9640  154.8496 O.2     1  UNL1       -0.3167
     17 C         139.7440  145.9691  156.0844 C.ar    1  UNL1        0.3183
     18 N         139.1157  147.3255  156.2084 N.ar    1  UNL1       -0.1779
     19 C         138.4333  150.3634  155.8098 C.3     1  UNL1        0.0081
     20 C         139.1950  149.5832  154.7797 C.3     1  UNL1        0.0621
     21 C         139.5726  150.2276  153.4788 C.3     1  UNL1        0.0081
     22 O         138.4145  137.9227  162.6978 O.3     1  UNL1       -0.4674
     23 C         139.4813  137.5903  163.6985 C.3     1  UNL1        0.2344
     24 C         139.5617  138.3500  164.9895 C.ar    1  UNL1        0.0487
     25 C         138.3207  138.5894  165.7973 C.ar    1  UNL1        0.0029
     26 C         138.4011  139.3491  167.0881 C.ar    1  UNL1        0.0183
     27 C         139.7225  139.8693  167.5712 C.ar    1  UNL1        0.1079
     28 C         140.9635  139.6298  166.7635 C.ar    1  UNL1        0.0478
     29 C         140.8830  138.8701  165.4726 C.ar    1  UNL1        0.1409
     30 F         142.1241  138.6306  164.6647 F       1  UNL1       -0.2043
     31 S         139.8028  140.6289  168.8622 S.O2    1  UNL1        0.0105
     32 C         139.8832  141.3886  170.1531 C.3     1  UNL1        0.1816
     33 O         140.8300  141.5418  168.2610 O.2     1  UNL1       -0.1686
     34 O         138.7757  139.7160  169.4634 O.2     1  UNL1       -0.1686
@<TRIPOS>BOND
     1    19    20    1
     2    20    21    1
     3    20    14    1
     4    14    15   ar
     5    15    16   ar
     6    16    17   ar
     7    17     7    1
     8     7     8    1
     9     8     9    1
    10     9    10    1
    11    10     1    1
    12     1     2   ar
    13     2     3   ar
    14     3     4   ar
    15     4    22    1
    16    22    23    1
    17    23    24    1
    18    24    25   ar
    19    25    26   ar
    20    26    27   ar
    21    27    31    1
    22    31    32    1
    23    31    33    2
    24    31    34    2
    25    27    28   ar
    26    28    29   ar
    27    29    30    1
    28     4     5   ar
    29     5     6   ar
    30    10    11    1
    31    11    12    1
    32    11    13    1
    33    17    18   ar
    34    18    14   ar
    35    13     7    1
    36     6     1   ar
    37    29    24   ar
@<TRIPOS>MOLECULE
*****
 34 37 0 0 0
SMALL
GASTEIGER

@<TRIPOS>ATOM
      1 C         139.0106  142.2096  160.2860 C.ar    1  UNL1        0.2204
      2 N         138.0127  142.5682  161.3468 N.ar    1  UNL1       -0.2089
      3 C         137.7517  141.6225  162.4815 C.ar    1  UNL1        0.1402
      4 C         138.4888  140.3182  162.5554 C.ar    1  UNL1        0.1773
      5 C         139.4868  139.9596  161.4945 C.ar    1  UNL1        0.1402
      6 N         139.7477  140.9053  160.3598 N.ar    1  UNL1       -0.2089
      7 N         139.7933  145.0466  156.8818 N.pl3   1  UNL1       -0.2586
      8 C         138.9956  143.7979  156.6490 C.3     1  UNL1        0.1167
      9 C         138.7347  142.8522  157.7838 C.3     1  UNL1        0.1151
     10 N         139.2716  143.1553  159.1512 N.pl3   1  UNL1       -0.2764
     11 C         140.0693  144.4040  159.3839 C.3     1  UNL1        0.0955
     12 C         140.6062  144.7071  160.7514 C.3     1  UNL1        0.0233
     13 C         140.3302  145.3497  158.2492 C.3     1  UNL1        0.1149
     14 C         140.0294  147.9662  154.3350 C.ar    1  UNL1        0.1817
     15 N         140.8822  146.9289  153.6666 N.ar    1  UNL1       -0.0586
     16 O         140.8976  145.7090  154.5393 O.2     1  UNL1       -0.3167
     17 C         140.0543  145.9923  155.7470 C.ar    1  UNL1        0.3183
     18 N         139.5177  147.3874  155.6208 N.ar    1  UNL1       -0.1779
     19 C         139.9944  149.6620  152.3670 C.3     1  UNL1        0.0081
     20 C         139.7392  149.3410  153.8099 C.3     1  UNL1        0.0621
     21 C         139.1939  150.3948  154.7276 C.3     1  UNL1        0.0081
     22 O         138.2280  139.3725  163.6901 O.3     1  UNL1       -0.4674
     23 C         139.3730  138.6789  164.3666 C.3     1  UNL1        0.2344
     24 C         139.8383  139.1410  165.7157 C.ar    1  UNL1        0.0487
     25 C         141.2919  139.4270  165.9503 C.ar    1  UNL1        0.0029
     26 C         141.7571  139.8891  167.2994 C.ar    1  UNL1        0.0183
     27 C         140.7687  140.0652  168.4139 C.ar    1  UNL1        0.1079
     28 C         139.3151  139.7792  168.1793 C.ar    1  UNL1        0.0478
     29 C         138.8499  139.3171  166.8302 C.ar    1  UNL1        0.1409
     30 F         137.3961  139.0311  166.5956 F       1  UNL1       -0.2043
     31 S         141.2340  140.5273  169.7630 S.O2    1  UNL1        0.0105
     32 C         141.6993  140.9894  171.1120 C.3     1  UNL1        0.1816
     33 O         140.1571  139.7110  170.4139 O.2     1  UNL1       -0.1686
     34 O         142.3110  141.3436  169.1120 O.2     1  UNL1       -0.1686
@<TRIPOS>BOND
     1    19    20    1
     2    20    21    1
     3    20    14    1
     4    14    15   ar
     5    15    16   ar
     6    16    17   ar
     7    17     7    1
     8     7     8    1
     9     8     9    1
    10     9    10    1
    11    10     1    1
    12     1     2   ar
    13     2     3   ar
    14     3     4   ar
    15     4    22    1
    16    22    23    1
    17    23    24    1
    18    24    25   ar
    19    25    26   ar
    20    26    27   ar
    21    27    31    1
    22    31    32    1
    23    31    33    2
    24    31    34    2
    25    27    28   ar
    26    28    29   ar
    27    29    30    1
    28     4     5   ar
    29     5     6   ar
    30    10    11    1
    31    11    12    1
    32    11    13    1
    33    17    18   ar
    34    18    14   ar
    35    13     7    1
    36     6     1   ar
    37    29    24   ar
@<TRIPOS>MOLECULE
*****
 34 37 0 0 0
SMALL
GASTEIGER

@<TRIPOS>ATOM
      1 C         141.1334  141.6595  159.0189 C.ar    1  UNL1        0.2204
      2 N         139.7051  141.8285  159.4449 N.ar    1  UNL1       -0.2089
      3 C         139.2285  143.1535  159.9620 C.ar    1  UNL1        0.1402
      4 C         140.1802  144.3094  160.0530 C.ar    1  UNL1        0.1773
      5 C         141.6085  144.1403  159.6270 C.ar    1  UNL1        0.1402
      6 N         142.0850  142.8153  159.1099 N.ar    1  UNL1       -0.2089
      7 N         142.5632  137.6846  157.4678 N.pl3   1  UNL1       -0.2586
      8 C         142.0242  138.7111  156.5162 C.3     1  UNL1        0.1167
      9 C         141.5476  140.0360  157.0332 C.3     1  UNL1        0.1151
     10 N         141.6100  140.3344  158.5019 N.pl3   1  UNL1       -0.2764
     11 C         142.1491  139.3079  159.4535 C.3     1  UNL1        0.0955
     12 C         142.2115  139.6064  160.9222 C.3     1  UNL1        0.0233
     13 C         142.6257  137.9830  158.9365 C.3     1  UNL1        0.1149
     14 C         143.7120  134.0299  156.8437 C.ar    1  UNL1        0.1817
     15 N         143.8347  134.6115  155.4665 N.ar    1  UNL1       -0.0586
     16 O         143.4193  136.0513  155.5327 O.2     1  UNL1       -0.3167
     17 C         143.0399  136.3596  156.9508 C.ar    1  UNL1        0.3183
     18 N         143.2207  135.1103  157.7610 N.ar    1  UNL1       -0.1779
     19 C         143.0592  131.5161  156.9092 C.3     1  UNL1        0.0081
     20 C         144.0254  132.6162  157.2349 C.3     1  UNL1        0.0621
     21 C         145.3051  132.3025  157.9519 C.3     1  UNL1        0.0081
     22 O         139.7036  145.6344  160.5700 O.3     1  UNL1       -0.4674
     23 C         139.9910  146.0338  161.9869 C.3     1  UNL1        0.2344
     24 C         140.0151  144.9951  163.0689 C.ar    1  UNL1        0.0487
     25 C         141.3123  144.6257  163.7251 C.ar    1  UNL1        0.0029
     26 C         141.3364  143.5870  164.8069 C.ar    1  UNL1        0.0183
     27 C         140.0633  142.9177  165.2326 C.ar    1  UNL1        0.1079
     28 C         138.7660  143.2872  164.5764 C.ar    1  UNL1        0.0478
     29 C         138.7419  144.3259  163.4946 C.ar    1  UNL1        0.1409
     30 F         137.4447  144.6954  162.8383 F       1  UNL1       -0.2043
     31 S         140.0874  141.8790  166.3146 S.O2    1  UNL1        0.0105
     32 C         140.1115  140.8403  167.3964 C.3     1  UNL1        0.1816
     33 O         138.9334  141.1750  165.6644 O.2     1  UNL1       -0.1686
     34 O         141.2413  142.5830  166.9648 O.2     1  UNL1       -0.1686
@<TRIPOS>BOND
     1    19    20    1
     2    20    21    1
     3    20    14    1
     4    14    15   ar
     5    15    16   ar
     6    16    17   ar
     7    17     7    1
     8     7     8    1
     9     8     9    1
    10     9    10    1
    11    10     1    1
    12     1     2   ar
    13     2     3   ar
    14     3     4   ar
    15     4    22    1
    16    22    23    1
    17    23    24    1
    18    24    25   ar
    19    25    26   ar
    20    26    27   ar
    21    27    31    1
    22    31    32    1
    23    31    33    2
    24    31    34    2
    25    27    28   ar
    26    28    29   ar
    27    29    30    1
    28     4     5   ar
    29     5     6   ar
    30    10    11    1
    31    11    12    1
    32    11    13    1
    33    17    18   ar
    34    18    14   ar
    35    13     7    1
    36     6     1   ar
    37    29    24   ar
@<TRIPOS>MOLECULE
*****
 34 37 0 0 0
SMALL
GASTEIGER

@<TRIPOS>ATOM
      1 C         140.8989  138.5760  160.9608 C.ar    1  UNL1        0.2204
      2 N         142.3089  138.3182  160.5187 N.ar    1  UNL1       -0.2089
      3 C         142.6032  138.0423  159.0739 C.ar    1  UNL1        0.1402
      4 C         141.4876  138.0240  158.0714 C.ar    1  UNL1        0.1773
      5 C         140.0776  138.2818  158.5136 C.ar    1  UNL1        0.1402
      6 N         139.7833  138.5578  159.9583 N.ar    1  UNL1       -0.2089
      7 N         140.0158  139.4038  165.2950 N.pl3   1  UNL1       -0.2586
      8 C         139.9922  137.9950  164.7806 C.3     1  UNL1        0.1167
      9 C         140.2866  137.7191  163.3359 C.3     1  UNL1        0.1151
     10 N         140.6045  138.8520  162.4056 N.pl3   1  UNL1       -0.2764
     11 C         140.6281  140.2608  162.9200 C.3     1  UNL1        0.0955
     12 C         140.9461  141.3937  161.9897 C.3     1  UNL1        0.0233
     13 C         140.3337  140.5367  164.3647 C.3     1  UNL1        0.1149
     14 C         139.8446  140.5838  168.9887 C.ar    1  UNL1        0.1817
     15 N         138.6921  139.6251  168.9370 N.ar    1  UNL1       -0.0586
     16 O         138.6160  139.0664  167.5471 O.2     1  UNL1       -0.3167
     17 C         139.7214  139.6798  166.7397 C.ar    1  UNL1        0.3183
     18 N         140.4807  140.6176  167.6307 N.ar    1  UNL1       -0.1779
     19 C         139.7626  142.7602  170.4053 C.3     1  UNL1        0.0081
     20 C         140.2839  141.3706  170.1879 C.3     1  UNL1        0.0621
     21 C         141.2444  140.7678  171.1698 C.3     1  UNL1        0.0081
     22 O         141.7819  137.7481  156.6267 O.3     1  UNL1       -0.4674
     23 C         143.0588  137.0631  156.2390 C.3     1  UNL1        0.2344
     24 C         143.0993  135.5692  156.1098 C.ar    1  UNL1        0.0487
     25 C         143.3698  134.7192  157.3157 C.ar    1  UNL1        0.0029
     26 C         143.4103  133.2253  157.1865 C.ar    1  UNL1        0.0183
     27 C         143.1802  132.5815  155.8514 C.ar    1  UNL1        0.1079
     28 C         142.9097  133.4315  154.6455 C.ar    1  UNL1        0.0478
     29 C         142.8692  134.9254  154.7747 C.ar    1  UNL1        0.1409
     30 F         142.5987  135.7755  153.5688 F       1  UNL1       -0.2043
     31 S         143.2207  131.0876  155.7222 S.O2    1  UNL1        0.0105
     32 C         143.2612  129.5937  155.5930 C.3     1  UNL1        0.1816
     33 O         144.7159  131.1182  155.8373 O.2     1  UNL1       -0.1686
     34 O         141.7255  131.0570  155.6070 O.2     1  UNL1       -0.1686
@<TRIPOS>BOND
     1    19    20    1
     2    20    21    1
     3    20    14    1
     4    14    15   ar
     5    15    16   ar
     6    16    17   ar
     7    17     7    1
     8     7     8    1
     9     8     9    1
    10     9    10    1
    11    10     1    1
    12     1     2   ar
    13     2     3   ar
    14     3     4   ar
    15     4    22    1
    16    22    23    1
    17    23    24    1
    18    24    25   ar
    19    25    26   ar
    20    26    27   ar
    21    27    31    1
    22    31    32    1
    23    31    33    2
    24    31    34    2
    25    27    28   ar
    26    28    29   ar
    27    29    30    1
    28     4     5   ar
    29     5     6   ar
    30    10    11    1
    31    11    12    1
    32    11    13    1
    33    17    18   ar
    34    18    14   ar
    35    13     7    1
    36     6     1   ar
    37    29    24   ar
@<TRIPOS>MOLECULE
*****
 34 37 0 0 0
SMALL
GASTEIGER

@<TRIPOS>ATOM
      1 C         141.0464  141.5008  159.1383 C.ar    1  UNL1        0.2204
      2 N         141.9958  142.6554  159.2615 N.ar    1  UNL1       -0.2089
      3 C         141.5102  143.9729  159.7894 C.ar    1  UNL1        0.1402
      4 C         140.0750  144.1356  160.1941 C.ar    1  UNL1        0.1773
      5 C         139.1255  142.9808  160.0709 C.ar    1  UNL1        0.1402
      6 N         139.6112  141.6635  159.5430 N.ar    1  UNL1       -0.2089
      7 N         142.5034  137.5486  157.5548 N.pl3   1  UNL1       -0.2586
      8 C         142.6647  137.8794  159.0090 C.3     1  UNL1        0.1167
      9 C         142.1790  139.1968  159.5368 C.3     1  UNL1        0.1151
     10 N         141.5320  140.1834  158.6105 N.pl3   1  UNL1       -0.2764
     11 C         141.3707  139.8526  157.1563 C.3     1  UNL1        0.0955
     12 C         140.7237  140.8392  156.2300 C.3     1  UNL1        0.0233
     13 C         141.8564  138.5352  156.6285 C.3     1  UNL1        0.1149
     14 C         143.7204  133.9200  156.9086 C.ar    1  UNL1        0.1817
     15 N         143.7524  134.4880  155.5206 N.ar    1  UNL1       -0.0586
     16 O         143.3004  135.9164  155.5938 O.2     1  UNL1       -0.3167
     17 C         142.9890  136.2312  157.0270 C.ar    1  UNL1        0.3183
     18 N         143.2486  134.9974  157.8395 N.ar    1  UNL1       -0.1779
     19 C         145.4066  132.2552  157.9740 C.3     1  UNL1        0.0081
     20 C         144.0944  132.5204  157.2973 C.3     1  UNL1        0.0621
     21 C         143.1564  131.3859  157.0094 C.3     1  UNL1        0.0081
     22 O         139.5893  145.4529  160.7219 O.3     1  UNL1       -0.4674
     23 C         139.9359  145.8748  162.1190 C.3     1  UNL1        0.2344
     24 C         139.9628  144.8606  163.2239 C.ar    1  UNL1        0.0487
     25 C         141.2642  144.4923  163.8724 C.ar    1  UNL1        0.0029
     26 C         141.2910  143.4782  164.9773 C.ar    1  UNL1        0.0183
     27 C         140.0164  142.8323  165.4336 C.ar    1  UNL1        0.1079
     28 C         138.7150  143.2006  164.7851 C.ar    1  UNL1        0.0478
     29 C         138.6882  144.2148  163.6802 C.ar    1  UNL1        0.1409
     30 F         137.3867  144.5831  163.0317 F       1  UNL1       -0.2043
     31 S         140.0433  141.8181  166.5385 S.O2    1  UNL1        0.0105
     32 C         140.0702  140.8040  167.6433 C.3     1  UNL1        0.1816
     33 O         139.6530  140.7465  165.5643 O.2     1  UNL1       -0.1686
     34 O         140.4336  142.8898  167.5128 O.2     1  UNL1       -0.1686
@<TRIPOS>BOND
     1    19    20    1
     2    20    21    1
     3    20    14    1
     4    14    15   ar
     5    15    16   ar
     6    16    17   ar
     7    17     7    1
     8     7     8    1
     9     8     9    1
    10     9    10    1
    11    10     1    1
    12     1     2   ar
    13     2     3   ar
    14     3     4   ar
    15     4    22    1
    16    22    23    1
    17    23    24    1
    18    24    25   ar
    19    25    26   ar
    20    26    27   ar
    21    27    31    1
    22    31    32    1
    23    31    33    2
    24    31    34    2
    25    27    28   ar
    26    28    29   ar
    27    29    30    1
    28     4     5   ar
    29     5     6   ar
    30    10    11    1
    31    11    12    1
    32    11    13    1
    33    17    18   ar
    34    18    14   ar
    35    13     7    1
    36     6     1   ar
    37    29    24   ar
@<TRIPOS>MOLECULE
*****
 34 37 0 0 0
SMALL
GASTEIGER

@<TRIPOS>ATOM
      1 C         143.5639  140.9771  160.1439 C.ar    1  UNL1        0.2204
      2 N         144.7582  141.0248  161.0500 N.ar    1  UNL1       -0.2089
      3 C         145.0334  142.2543  161.8642 C.ar    1  UNL1        0.1402
      4 C         144.1142  143.4360  161.7720 C.ar    1  UNL1        0.1773
      5 C         142.9198  143.3883  160.8658 C.ar    1  UNL1        0.1402
      6 N         142.6447  142.1589  160.0517 N.ar    1  UNL1       -0.2089
      7 N         142.7384  137.2889  157.7015 N.pl3   1  UNL1       -0.2586
      8 C         143.0515  138.5866  157.0177 C.3     1  UNL1        0.1167
      9 C         143.3266  139.8160  157.8318 C.3     1  UNL1        0.1151
     10 N         143.2887  139.7476  159.3297 N.pl3   1  UNL1       -0.2764
     11 C         142.9756  138.4499  160.0136 C.3     1  UNL1        0.0955
     12 C         142.9376  138.3815  161.5115 C.3     1  UNL1        0.0233
     13 C         142.7004  137.2205  159.1995 C.3     1  UNL1        0.1149
     14 C         142.5719  133.7981  156.0125 C.ar    1  UNL1        0.1817
     15 N         141.5074  134.5368  155.2567 N.ar    1  UNL1       -0.0586
     16 O         141.4402  135.9344  155.7975 O.2     1  UNL1       -0.3167
     17 C         142.4632  136.0594  156.8874 C.ar    1  UNL1        0.3183
     18 N         143.1626  134.7391  157.0202 N.ar    1  UNL1       -0.1779
     19 C         143.2137  131.8578  154.4083 C.3     1  UNL1        0.0081
     20 C         142.9750  132.3693  155.7980 C.3     1  UNL1        0.0621
     21 C         143.1394  131.4519  156.9733 C.3     1  UNL1        0.0081
     22 O         144.3893  144.6655  162.5861 O.3     1  UNL1       -0.4674
     23 C         143.3824  145.1401  163.5915 C.3     1  UNL1        0.2344
     24 C         142.6623  144.1490  164.4571 C.ar    1  UNL1        0.0487
     25 C         141.1628  144.1141  164.4694 C.ar    1  UNL1        0.0029
     26 C         140.4428  143.1231  165.3351 C.ar    1  UNL1        0.0183
     27 C         141.2223  142.1669  166.1884 C.ar    1  UNL1        0.1079
     28 C         142.7218  142.2018  166.1761 C.ar    1  UNL1        0.0478
     29 C         143.4418  143.1928  165.3105 C.ar    1  UNL1        0.1409
     30 F         144.9414  143.2278  165.2981 F       1  UNL1       -0.2043
     31 S         140.5022  141.1758  167.0540 S.O2    1  UNL1        0.0105
     32 C         139.7821  140.1848  167.9196 C.3     1  UNL1        0.1816
     33 O         139.3845  141.1158  166.0555 O.2     1  UNL1       -0.1686
     34 O         141.6198  141.2359  168.0526 O.2     1  UNL1       -0.1686
@<TRIPOS>BOND
     1    19    20    1
     2    20    21    1
     3    20    14    1
     4    14    15   ar
     5    15    16   ar
     6    16    17   ar
     7    17     7    1
     8     7     8    1
     9     8     9    1
    10     9    10    1
    11    10     1    1
    12     1     2   ar
    13     2     3   ar
    14     3     4   ar
    15     4    22    1
    16    22    23    1
    17    23    24    1
    18    24    25   ar
    19    25    26   ar
    20    26    27   ar
    21    27    31    1
    22    31    32    1
    23    31    33    2
    24    31    34    2
    25    27    28   ar
    26    28    29   ar
    27    29    30    1
    28     4     5   ar
    29     5     6   ar
    30    10    11    1
    31    11    12    1
    32    11    13    1
    33    17    18   ar
    34    18    14   ar
    35    13     7    1
    36     6     1   ar
    37    29    24   ar
