@<TRIPOS>MOLECULE
*****
 40 42 0 0 0
SMALL
GASTEIGER

@<TRIPOS>ATOM
      1 C         138.9719  142.5385  161.7585 C.2     1  UNL1        0.2485
      2 O         137.9714  143.6558  161.7356 O.2     1  UNL1       -0.2726
      3 N         139.9721  142.4047  160.6486 N.am    1  UNL1       -0.2823
      4 H         140.6288  141.6713  160.6636 H       1  UNL1        0.1549
      5 C         137.6417  137.9715  161.6628 C.3     1  UNL1        0.0949
      6 C         138.0366  139.4166  161.5883 C.2     1  UNL1        0.2269
      7 O         137.9257  140.1584  160.2893 O.2     1  UNL1       -0.2748
      8 N         138.5423  140.1201  162.8128 N.am    1  UNL1       -0.2655
      9 C         138.7069  139.5120  164.1742 C.3     1  UNL1        0.1206
     10 C         139.2385  140.5712  165.0937 C.ar    1  UNL1       -0.0030
     11 C         139.5945  140.5490  166.5507 C.ar    1  UNL1        0.0155
     12 C         140.1145  141.7895  167.2146 C.ar    1  UNL1        0.1055
     13 C         140.2784  143.0521  166.4216 C.ar    1  UNL1        0.0181
     14 C         139.9224  143.0743  164.9646 C.ar    1  UNL1       -0.0011
     15 C         139.4025  141.8338  164.3007 C.ar    1  UNL1        0.0022
     16 C         138.9722  141.5550  162.8911 C.3     1  UNL1        0.1750
     17 S         140.4705  141.7674  168.6716 S.O2    1  UNL1        0.0112
     18 O         140.4346  143.2666  168.7032 O.2     1  UNL1       -0.1685
     19 O         140.5064  140.2682  168.6400 O.2     1  UNL1       -0.1685
     20 C         140.8265  141.7452  170.1286 C.3     1  UNL1        0.1875
     21 C         141.0409  140.4359  170.8284 C.3     1  UNL1        0.1629
     22 O         139.8633  139.6399  171.3077 O.3     1  UNL1       -0.3801
     23 H         139.4083  140.1277  172.0118 H       1  UNL1        0.2105
     24 C         139.9718  143.3882  159.5160 C.ar    1  UNL1        0.0503
     25 C         139.2265  143.0764  158.2522 C.ar    1  UNL1        0.0144
     26 C         139.2261  144.0599  157.1196 C.ar    1  UNL1       -0.0002
     27 C         139.9712  145.3551  157.2510 C.ar    1  UNL1        0.0182
     28 C         140.7165  145.6669  158.5148 C.ar    1  UNL1       -0.0002
     29 C         140.7168  144.6834  159.6474 C.ar    1  UNL1        0.0144
     30 C         139.9709  146.3387  156.1184 C.3     1  UNL1        0.2827
     31 O         139.3659  147.3750  157.0184 O.3     1  UNL1       -0.3692
     32 H         139.2354  148.1980  156.5219 H       1  UNL1        0.2112
     33 C         139.9706  147.3222  154.9858 C.3     1  UNL1        0.4311
     34 F         139.9704  148.3057  153.8532 F       1  UNL1       -0.1669
     35 F         138.4729  147.3845  155.0402 F       1  UNL1       -0.1669
     36 F         140.8484  147.3565  154.8723 F       1  UNL1       -0.1669
     37 C         140.5759  145.3024  155.2184 C.3     1  UNL1        0.4311
     38 F         141.1808  144.2660  154.3183 F       1  UNL1       -0.1669
     39 F         139.8568  145.1577  154.7218 F       1  UNL1       -0.1669
     40 F         141.9847  145.1676  155.7154 F       1  UNL1       -0.1669
@<TRIPOS>BOND
     1     5     6    1
     2     6     7    2
     3     6     8   am
     4     8     9    1
     5     9    10    1
     6    10    11   ar
     7    11    12   ar
     8    12    17    1
     9    17    18    2
    10    17    19    2
    11    17    20    1
    12    20    21    1
    13    21    22    1
    14    12    13   ar
    15    13    14   ar
    16    14    15   ar
    17    15    16    1
    18    16     1    1
    19     1     2    2
    20     1     3   am
    21     3    24    1
    22    24    25   ar
    23    25    26   ar
    24    26    27   ar
    25    27    30    1
    26    30    31    1
    27    30    33    1
    28    33    34    1
    29    33    35    1
    30    33    36    1
    31    30    37    1
    32    37    38    1
    33    37    39    1
    34    37    40    1
    35    27    28   ar
    36    28    29   ar
    37    16     8    1
    38    29    24   ar
    39    15    10   ar
    40    22    23    1
    41     3     4    1
    42    31    32    1
@<TRIPOS>MOLECULE
*****
 40 42 0 0 0
SMALL
GASTEIGER

@<TRIPOS>ATOM
      1 C         140.5014  139.3094  161.8230 C.2     1  UNL1        0.2485
      2 O         139.9334  137.9226  161.7603 O.2     1  UNL1       -0.2726
      3 N         141.2842  139.8524  160.6642 N.am    1  UNL1       -0.2823
      4 H         141.6570  140.7626  160.7053 H       1  UNL1        0.1549
      5 C         137.8636  143.2483  162.2261 C.3     1  UNL1        0.0949
      6 C         138.6662  142.0023  161.9955 C.2     1  UNL1        0.2269
      7 O         138.6917  141.3675  160.6367 O.2     1  UNL1       -0.2748
      8 N         139.4432  141.3911  163.1236 N.am    1  UNL1       -0.2655
      9 C         139.5131  141.9104  164.5291 C.3     1  UNL1        0.1206
     10 C         140.3998  140.9936  165.3185 C.ar    1  UNL1       -0.0030
     11 C         140.8336  141.0073  166.7543 C.ar    1  UNL1        0.0155
     12 C         141.7456  139.9350  167.2724 C.ar    1  UNL1        0.1055
     13 C         142.2238  138.8491  166.3548 C.ar    1  UNL1        0.0181
     14 C         141.7899  138.8354  164.9190 C.ar    1  UNL1       -0.0011
     15 C         140.8780  139.9076  164.4008 C.ar    1  UNL1        0.0022
     16 C         140.2867  140.1534  163.0443 C.3     1  UNL1        0.1750
     17 S         142.1795  139.9487  168.7083 S.O2    1  UNL1        0.0112
     18 O         141.2242  141.0712  168.9863 O.2     1  UNL1       -0.1685
     19 O         143.1347  138.8262  168.4303 O.2     1  UNL1       -0.1685
     20 C         142.6133  139.9623  170.1441 C.3     1  UNL1        0.1875
     21 C         141.9930  140.9320  171.1059 C.3     1  UNL1        0.1629
     22 O         140.7737  140.5385  171.8858 O.3     1  UNL1       -0.3801
     23 H         140.0279  140.4129  171.2784 H       1  UNL1        0.2105
     24 C         141.4988  139.0084  159.4429 C.ar    1  UNL1        0.0503
     25 C         140.6093  139.1794  158.2473 C.ar    1  UNL1        0.0144
     26 C         140.8239  138.3354  157.0259 C.ar    1  UNL1       -0.0002
     27 C         141.9282  137.3206  157.0003 C.ar    1  UNL1        0.0182
     28 C         142.8177  137.1496  158.1959 C.ar    1  UNL1       -0.0002
     29 C         142.6031  137.9936  159.4172 C.ar    1  UNL1        0.0144
     30 C         142.1429  136.4766  155.7789 C.3     1  UNL1        0.2827
     31 O         140.7986  135.8424  155.9807 O.3     1  UNL1       -0.3692
     32 H         140.6398  135.1912  155.2795 H       1  UNL1        0.2112
     33 C         142.3577  135.6326  154.5576 C.3     1  UNL1        0.4311
     34 F         142.5726  134.7887  153.3363 F       1  UNL1       -0.1669
     35 F         142.3550  134.3984  155.4100 F       1  UNL1       -0.1669
     36 F         142.3748  136.2952  153.9701 F       1  UNL1       -0.1669
     37 C         143.4872  137.1107  155.5772 C.3     1  UNL1        0.4311
     38 F         144.8315  137.7449  155.3754 F       1  UNL1       -0.1669
     39 F         143.1949  137.9243  155.3841 F       1  UNL1       -0.1669
     40 F         144.4566  135.9930  155.8240 F       1  UNL1       -0.1669
@<TRIPOS>BOND
     1     5     6    1
     2     6     7    2
     3     6     8   am
     4     8     9    1
     5     9    10    1
     6    10    11   ar
     7    11    12   ar
     8    12    17    1
     9    17    18    2
    10    17    19    2
    11    17    20    1
    12    20    21    1
    13    21    22    1
    14    12    13   ar
    15    13    14   ar
    16    14    15   ar
    17    15    16    1
    18    16     1    1
    19     1     2    2
    20     1     3   am
    21     3    24    1
    22    24    25   ar
    23    25    26   ar
    24    26    27   ar
    25    27    30    1
    26    30    31    1
    27    30    33    1
    28    33    34    1
    29    33    35    1
    30    33    36    1
    31    30    37    1
    32    37    38    1
    33    37    39    1
    34    37    40    1
    35    27    28   ar
    36    28    29   ar
    37    16     8    1
    38    29    24   ar
    39    15    10   ar
    40    22    23    1
    41     3     4    1
    42    31    32    1
@<TRIPOS>MOLECULE
*****
 40 42 0 0 0
SMALL
GASTEIGER

@<TRIPOS>ATOM
      1 C         140.6505  140.7345  161.7735 C.2     1  UNL1        0.2485
      2 O         139.4693  139.9548  161.2768 O.2     1  UNL1       -0.2726
      3 N         141.9571  140.6652  161.0398 N.am    1  UNL1       -0.2823
      4 H         142.7324  141.1769  161.3657 H       1  UNL1        0.1549
      5 C         140.5003  145.4821  162.0445 C.3     1  UNL1        0.0949
      6 C         140.5563  143.9955  161.8523 C.2     1  UNL1        0.2269
      7 O         140.6865  143.4221  160.4724 O.2     1  UNL1       -0.2748
      8 N         140.4820  143.0823  163.0400 N.am    1  UNL1       -0.2655
      9 C         140.3514  143.5078  164.4725 C.3     1  UNL1        0.1206
     10 C         140.3140  142.2718  165.3216 C.ar    1  UNL1       -0.0030
     11 C         140.1960  142.0756  166.8040 C.ar    1  UNL1        0.0155
     12 C         140.1855  140.6902  167.3786 C.ar    1  UNL1        0.1055
     13 C         140.2930  139.5008  166.4709 C.ar    1  UNL1        0.0181
     14 C         140.4110  139.6970  164.9885 C.ar    1  UNL1       -0.0011
     15 C         140.4215  141.0824  164.4138 C.ar    1  UNL1        0.0022
     16 C         140.5254  141.5834  163.0038 C.3     1  UNL1        0.1750
     17 S         140.0674  140.4940  168.8611 S.O2    1  UNL1        0.0112
     18 O         141.2419  141.4021  169.0749 O.2     1  UNL1       -0.1685
     19 O         138.8929  139.5858  168.6473 O.2     1  UNL1       -0.1685
     20 C         139.9493  140.2977  170.3435 C.3     1  UNL1        0.1875
     21 C         140.9214  140.9682  171.2686 C.3     1  UNL1        0.1629
     22 O         140.5388  142.2406  171.9646 O.3     1  UNL1       -0.3801
     23 H         140.4256  142.9464  171.3089 H       1  UNL1        0.2105
     24 C         142.0823  139.8162  159.8095 C.ar    1  UNL1        0.0503
     25 C         142.6129  138.4171  159.9145 C.ar    1  UNL1        0.0144
     26 C         142.7381  137.5682  158.6842 C.ar    1  UNL1       -0.0002
     27 C         142.3326  138.1183  157.3490 C.ar    1  UNL1        0.0182
     28 C         141.8020  139.5174  157.2440 C.ar    1  UNL1       -0.0002
     29 C         141.6768  140.3664  158.4743 C.ar    1  UNL1        0.0144
     30 C         142.4578  137.2694  156.1186 C.3     1  UNL1        0.2827
     31 O         143.9477  137.4395  156.1527 O.3     1  UNL1       -0.3692
     32 H         144.3451  136.9586  155.4099 H       1  UNL1        0.2112
     33 C         142.5828  136.4205  154.8883 C.3     1  UNL1        0.4311
     34 F         142.7078  135.5716  153.6579 F       1  UNL1       -0.1669
     35 F         143.0971  137.6042  154.1238 F       1  UNL1       -0.1669
     36 F         142.2904  135.6657  155.2477 F       1  UNL1       -0.1669
     37 C         140.9678  137.0993  156.0845 C.3     1  UNL1        0.4311
     38 F         139.4778  136.9292  156.0506 F       1  UNL1       -0.1669
     39 F         140.9030  136.5726  156.7938 F       1  UNL1       -0.1669
     40 F         140.5369  137.9098  154.8982 F       1  UNL1       -0.1669
@<TRIPOS>BOND
     1     5     6    1
     2     6     7    2
     3     6     8   am
     4     8     9    1
     5     9    10    1
     6    10    11   ar
     7    11    12   ar
     8    12    17    1
     9    17    18    2
    10    17    19    2
    11    17    20    1
    12    20    21    1
    13    21    22    1
    14    12    13   ar
    15    13    14   ar
    16    14    15   ar
    17    15    16    1
    18    16     1    1
    19     1     2    2
    20     1     3   am
    21     3    24    1
    22    24    25   ar
    23    25    26   ar
    24    26    27   ar
    25    27    30    1
    26    30    31    1
    27    30    33    1
    28    33    34    1
    29    33    35    1
    30    33    36    1
    31    30    37    1
    32    37    38    1
    33    37    39    1
    34    37    40    1
    35    27    28   ar
    36    28    29   ar
    37    16     8    1
    38    29    24   ar
    39    15    10   ar
    40    22    23    1
    41     3     4    1
    42    31    32    1
@<TRIPOS>MOLECULE
*****
 40 42 0 0 0
SMALL
GASTEIGER

@<TRIPOS>ATOM
      1 C         141.5479  141.1763  161.9692 C.2     1  UNL1        0.2485
      2 O         140.3617  140.4246  162.4961 O.2     1  UNL1       -0.2726
      3 N         142.4813  141.8660  162.9197 N.am    1  UNL1       -0.2823
      4 H         143.2599  142.3595  162.5740 H       1  UNL1        0.1549
      5 C         141.3760  144.9926  159.1334 C.3     1  UNL1        0.0949
      6 C         141.4040  143.8541  160.1095 C.2     1  UNL1        0.2269
      7 O         141.1014  144.1002  161.5578 O.2     1  UNL1       -0.2748
      8 N         141.7348  142.4693  159.6372 N.am    1  UNL1       -0.2655
      9 C         142.0574  142.0722  158.2272 C.3     1  UNL1        0.1206
     10 C         142.3230  140.5959  158.2106 C.ar    1  UNL1       -0.0030
     11 C         142.6887  139.6543  157.1017 C.ar    1  UNL1        0.0155
     12 C         142.8958  138.1975  157.3926 C.ar    1  UNL1        0.1055
     13 C         142.7373  137.6823  158.7924 C.ar    1  UNL1        0.0181
     14 C         142.3716  138.6239  159.9013 C.ar    1  UNL1       -0.0011
     15 C         142.1645  140.0807  159.6104 C.ar    1  UNL1        0.0022
     16 C         141.8009  141.2385  160.4920 C.3     1  UNL1        0.1750
     17 S         143.2615  137.2558  156.2837 S.O2    1  UNL1        0.0112
     18 O         142.0846  136.3924  156.6287 O.2     1  UNL1       -0.1685
     19 O         144.4385  138.1193  155.9387 O.2     1  UNL1       -0.1685
     20 C         143.6273  136.3142  155.1749 C.3     1  UNL1        0.1875
     21 C         143.5481  134.8322  155.3926 C.3     1  UNL1        0.1629
     22 O         144.2080  134.2137  156.5892 O.3     1  UNL1       -0.3801
     23 H         145.1699  134.3159  156.5169 H       1  UNL1        0.2105
     24 C         142.2283  141.8039  164.3969 C.ar    1  UNL1        0.0503
     25 C         141.2470  142.7452  165.0300 C.ar    1  UNL1        0.0144
     26 C         140.9940  142.6831  166.5073 C.ar    1  UNL1       -0.0002
     27 C         141.7224  141.6796  167.3513 C.ar    1  UNL1        0.0182
     28 C         142.7037  140.7382  166.7181 C.ar    1  UNL1       -0.0002
     29 C         142.9567  140.8004  165.2409 C.ar    1  UNL1        0.0144
     30 C         141.4695  141.6174  168.8285 C.3     1  UNL1        0.2827
     31 O         140.0753  141.1284  168.5693 O.3     1  UNL1       -0.3692
     32 H         139.6206  140.9851  169.4141 H       1  UNL1        0.2112
     33 C         141.2167  141.5552  170.3057 C.3     1  UNL1        0.4311
     34 F         140.9638  141.4930  171.7830 F       1  UNL1       -0.1669
     35 F         141.0870  140.0632  170.2208 F       1  UNL1       -0.1669
     36 F         141.2744  142.4251  170.4620 F       1  UNL1       -0.1669
     37 C         142.8637  142.1063  169.0877 C.3     1  UNL1        0.4311
     38 F         144.2579  142.5953  169.3469 F       1  UNL1       -0.1669
     39 F         142.7594  142.9164  168.7450 F       1  UNL1       -0.1669
     40 F         143.5398  140.9418  169.7487 F       1  UNL1       -0.1669
@<TRIPOS>BOND
     1     5     6    1
     2     6     7    2
     3     6     8   am
     4     8     9    1
     5     9    10    1
     6    10    11   ar
     7    11    12   ar
     8    12    17    1
     9    17    18    2
    10    17    19    2
    11    17    20    1
    12    20    21    1
    13    21    22    1
    14    12    13   ar
    15    13    14   ar
    16    14    15   ar
    17    15    16    1
    18    16     1    1
    19     1     2    2
    20     1     3   am
    21     3    24    1
    22    24    25   ar
    23    25    26   ar
    24    26    27   ar
    25    27    30    1
    26    30    31    1
    27    30    33    1
    28    33    34    1
    29    33    35    1
    30    33    36    1
    31    30    37    1
    32    37    38    1
    33    37    39    1
    34    37    40    1
    35    27    28   ar
    36    28    29   ar
    37    16     8    1
    38    29    24   ar
    39    15    10   ar
    40    22    23    1
    41     3     4    1
    42    31    32    1
@<TRIPOS>MOLECULE
*****
 40 42 0 0 0
SMALL
GASTEIGER

@<TRIPOS>ATOM
      1 C         142.5537  137.9881  158.2184 C.2     1  UNL1        0.2485
      2 O         143.7101  138.8919  157.9095 O.2     1  UNL1       -0.2726
      3 N         141.9119  138.0279  159.5737 N.am    1  UNL1       -0.2823
      4 H         141.1528  137.4347  159.7765 H       1  UNL1        0.1549
      5 C         138.8817  138.6254  155.2610 C.3     1  UNL1        0.0949
      6 C         140.0186  138.5219  156.2340 C.2     1  UNL1        0.2269
      7 O         140.3004  139.6506  157.1809 O.2     1  UNL1       -0.2748
      8 N         140.8736  137.2898  156.2601 N.am    1  UNL1       -0.2655
      9 C         140.7136  136.0867  155.3787 C.3     1  UNL1        0.1206
     10 C         141.7799  135.0977  155.7461 C.ar    1  UNL1       -0.0030
     11 C         142.1109  133.7347  155.2144 C.ar    1  UNL1        0.0155
     12 C         143.2609  132.9636  155.7913 C.ar    1  UNL1        0.1055
     13 C         144.0800  133.5556  156.8998 C.ar    1  UNL1        0.0181
     14 C         143.7490  134.9185  157.4314 C.ar    1  UNL1       -0.0011
     15 C         142.5990  135.6896  156.8546 C.ar    1  UNL1        0.0022
     16 C         142.0389  137.0444  157.1722 C.3     1  UNL1        0.1750
     17 S         143.5919  131.6006  155.2597 S.O2    1  UNL1        0.0112
     18 O         145.0052  131.7574  155.7372 O.2     1  UNL1       -0.1685
     19 O         142.1787  131.4437  154.7822 O.2     1  UNL1       -0.1685
     20 C         143.9229  130.2376  154.7281 C.3     1  UNL1        0.1875
     21 C         144.0595  130.0218  153.2499 C.3     1  UNL1        0.1629
     22 O         143.6724  131.1111  152.2941 O.3     1  UNL1       -0.3801
     23 H         142.7161  131.2639  152.3481 H       1  UNL1        0.2105
     24 C         142.4267  138.9716  160.6198 C.ar    1  UNL1        0.0503
     25 C         141.8464  140.3497  160.7376 C.ar    1  UNL1        0.0144
     26 C         142.3612  141.2934  161.7838 C.ar    1  UNL1       -0.0002
     27 C         143.4562  140.8589  162.7121 C.ar    1  UNL1        0.0182
     28 C         144.0366  139.4807  162.5944 C.ar    1  UNL1       -0.0002
     29 C         143.5218  138.5370  161.5482 C.ar    1  UNL1        0.0144
     30 C         143.9711  141.8025  163.7584 C.3     1  UNL1        0.2827
     31 O         143.5366  140.8494  164.8320 O.3     1  UNL1       -0.3692
     32 H         143.7568  141.2193  165.7012 H       1  UNL1        0.2112
     33 C         144.4860  142.7462  164.8045 C.3     1  UNL1        0.4311
     34 F         145.0009  143.6899  165.8506 F       1  UNL1       -0.1669
     35 F         143.0802  143.0163  165.2527 F       1  UNL1       -0.1669
     36 F         145.3469  142.6558  164.6172 F       1  UNL1       -0.1669
     37 C         144.4057  142.7556  162.6847 C.3     1  UNL1        0.4311
     38 F         144.8401  143.7088  161.6110 F       1  UNL1       -0.1669
     39 F         143.8153  143.3923  162.8601 F       1  UNL1       -0.1669
     40 F         145.5398  142.0459  162.0065 F       1  UNL1       -0.1669
@<TRIPOS>BOND
     1     5     6    1
     2     6     7    2
     3     6     8   am
     4     8     9    1
     5     9    10    1
     6    10    11   ar
     7    11    12   ar
     8    12    17    1
     9    17    18    2
    10    17    19    2
    11    17    20    1
    12    20    21    1
    13    21    22    1
    14    12    13   ar
    15    13    14   ar
    16    14    15   ar
    17    15    16    1
    18    16     1    1
    19     1     2    2
    20     1     3   am
    21     3    24    1
    22    24    25   ar
    23    25    26   ar
    24    26    27   ar
    25    27    30    1
    26    30    31    1
    27    30    33    1
    28    33    34    1
    29    33    35    1
    30    33    36    1
    31    30    37    1
    32    37    38    1
    33    37    39    1
    34    37    40    1
    35    27    28   ar
    36    28    29   ar
    37    16     8    1
    38    29    24   ar
    39    15    10   ar
    40    22    23    1
    41     3     4    1
    42    31    32    1
@<TRIPOS>MOLECULE
*****
 40 42 0 0 0
SMALL
GASTEIGER

@<TRIPOS>ATOM
      1 C         141.3089  141.5958  161.9381 C.2     1  UNL1        0.2485
      2 O         140.0055  141.8427  162.6380 O.2     1  UNL1       -0.2726
      3 N         142.5356  141.2603  162.7336 N.am    1  UNL1       -0.2823
      4 H         143.3911  141.0983  162.2742 H       1  UNL1        0.1549
      5 C         142.4821  138.1592  158.8642 C.3     1  UNL1        0.0949
      6 C         142.1268  139.1714  159.9126 C.2     1  UNL1        0.2269
      7 O         142.1367  138.7850  161.3619 O.2     1  UNL1       -0.2748
      8 N         141.7617  140.5699  159.5116 N.am    1  UNL1       -0.2655
      9 C         141.7085  141.0997  158.1093 C.3     1  UNL1        0.1206
     10 C         141.2996  142.5414  158.1736 C.ar    1  UNL1       -0.0030
     11 C         141.0832  143.5719  157.1054 C.ar    1  UNL1        0.0155
     12 C         140.6673  144.9637  157.4792 C.ar    1  UNL1        0.1055
     13 C         140.4678  145.3251  158.9213 C.ar    1  UNL1        0.0181
     14 C         140.6843  144.2946  159.9896 C.ar    1  UNL1       -0.0011
     15 C         141.1002  142.9028  159.6157 C.ar    1  UNL1        0.0022
     16 C         141.3858  141.6843  160.4426 C.3     1  UNL1        0.1750
     17 S         140.4508  145.9943  156.4110 S.O2    1  UNL1        0.0112
     18 O         141.2953  145.1921  155.4659 O.2     1  UNL1       -0.1685
     19 O         139.6063  146.7965  157.3560 O.2     1  UNL1       -0.1685
     20 C         140.2343  147.0249  155.3428 C.3     1  UNL1        0.1875
     21 C         139.0081  147.8884  155.3712 C.3     1  UNL1        0.1629
     22 O         139.0628  149.2482  156.0020 O.3     1  UNL1       -0.3801
     23 H         139.2189  149.1565  156.9550 H       1  UNL1        0.2105
     24 C         142.4587  141.1718  164.2290 C.ar    1  UNL1        0.0503
     25 C         143.0435  142.2630  165.0760 C.ar    1  UNL1        0.0144
     26 C         142.9666  142.1745  166.5714 C.ar    1  UNL1       -0.0002
     27 C         142.3049  140.9948  167.2198 C.ar    1  UNL1        0.0182
     28 C         141.7202  139.9036  166.3728 C.ar    1  UNL1       -0.0002
     29 C         141.7971  139.9921  164.8774 C.ar    1  UNL1        0.0144
     30 C         142.2280  140.9062  168.7152 C.3     1  UNL1        0.2827
     31 O         143.0290  139.6385  168.6814 O.3     1  UNL1       -0.3692
     32 H         143.1548  139.3112  169.5859 H       1  UNL1        0.2112
     33 C         142.1510  140.8177  170.2106 C.3     1  UNL1        0.4311
     34 F         142.0740  140.7292  171.7060 F       1  UNL1       -0.1669
     35 F         143.6431  140.9462  170.2950 F       1  UNL1       -0.1669
     36 F         141.2710  140.7361  170.2689 F       1  UNL1       -0.1669
     37 C         141.4270  142.1740  168.7490 C.3     1  UNL1        0.4311
     38 F         140.6258  143.4417  168.7828 F       1  UNL1       -0.1669
     39 F         140.6998  141.8527  168.3584 F       1  UNL1       -0.1669
     40 F         142.3415  143.1638  169.4078 F       1  UNL1       -0.1669
@<TRIPOS>BOND
     1     5     6    1
     2     6     7    2
     3     6     8   am
     4     8     9    1
     5     9    10    1
     6    10    11   ar
     7    11    12   ar
     8    12    17    1
     9    17    18    2
    10    17    19    2
    11    17    20    1
    12    20    21    1
    13    21    22    1
    14    12    13   ar
    15    13    14   ar
    16    14    15   ar
    17    15    16    1
    18    16     1    1
    19     1     2    2
    20     1     3   am
    21     3    24    1
    22    24    25   ar
    23    25    26   ar
    24    26    27   ar
    25    27    30    1
    26    30    31    1
    27    30    33    1
    28    33    34    1
    29    33    35    1
    30    33    36    1
    31    30    37    1
    32    37    38    1
    33    37    39    1
    34    37    40    1
    35    27    28   ar
    36    28    29   ar
    37    16     8    1
    38    29    24   ar
    39    15    10   ar
    40    22    23    1
    41     3     4    1
    42    31    32    1
@<TRIPOS>MOLECULE
*****
 40 42 0 0 0
SMALL
GASTEIGER

@<TRIPOS>ATOM
      1 C         141.5737  141.4018  162.0606 C.2     1  UNL1        0.2485
      2 O         142.6295  142.1795  162.7886 O.2     1  UNL1       -0.2726
      3 N         140.5579  140.6122  162.8320 N.am    1  UNL1       -0.2823
      4 H         139.8649  140.1018  162.3542 H       1  UNL1        0.1549
      5 C         142.6763  137.8610  159.0802 C.3     1  UNL1        0.0949
      6 C         142.3527  138.9111  160.1012 C.2     1  UNL1        0.2269
      7 O         142.4902  138.6036  161.5629 O.2     1  UNL1       -0.2748
      8 N         141.8914  140.2687  159.6606 N.am    1  UNL1       -0.2655
      9 C         141.7073  140.7199  158.2419 C.3     1  UNL1        0.1206
     10 C         141.2354  142.1435  158.2657 C.ar    1  UNL1       -0.0030
     11 C         140.8898  143.1048  157.1674 C.ar    1  UNL1        0.0155
     12 C         140.4366  144.4949  157.5025 C.ar    1  UNL1        0.1055
     13 C         140.3291  144.9236  158.9359 C.ar    1  UNL1        0.0181
     14 C         140.6748  143.9623  160.0342 C.ar    1  UNL1       -0.0011
     15 C         141.1279  142.5723  159.6991 C.ar    1  UNL1        0.0022
     16 C         141.5334  141.4136  160.5612 C.3     1  UNL1        0.1750
     17 S         140.0909  145.4563  156.4042 S.O2    1  UNL1        0.0112
     18 O         138.9019  144.6163  156.0431 O.2     1  UNL1       -0.1685
     19 O         141.2799  146.2963  156.7653 O.2     1  UNL1       -0.1685
     20 C         139.7453  146.4177  155.3059 C.3     1  UNL1        0.1875
     21 C         138.9633  147.6599  155.6151 C.3     1  UNL1        0.1629
     22 O         138.8928  148.1707  157.0236 O.3     1  UNL1       -0.3801
     23 H         138.4109  147.5342  157.5746 H       1  UNL1        0.2105
     24 C         140.5982  140.6005  164.3314 C.ar    1  UNL1        0.0503
     25 C         141.3620  139.5299  165.0528 C.ar    1  UNL1        0.0144
     26 C         141.4023  139.5181  166.5522 C.ar    1  UNL1       -0.0002
     27 C         140.6788  140.5770  167.3302 C.ar    1  UNL1        0.0182
     28 C         139.9150  141.6477  166.6088 C.ar    1  UNL1       -0.0002
     29 C         139.8747  141.6594  165.1094 C.ar    1  UNL1        0.0144
     30 C         140.7190  140.5654  168.8296 C.3     1  UNL1        0.2827
     31 O         139.4267  139.8044  168.8585 O.3     1  UNL1       -0.3692
     32 H         139.1727  139.6333  169.7789 H       1  UNL1        0.2112
     33 C         140.7594  140.5538  170.3290 C.3     1  UNL1        0.4311
     34 F         140.7997  140.5422  171.8285 F       1  UNL1       -0.1669
     35 F         141.1550  139.1070  170.3072 F       1  UNL1       -0.1669
     36 F         140.5304  141.4008  170.4499 F       1  UNL1       -0.1669
     37 C         142.0114  141.3263  168.8008 C.3     1  UNL1        0.4311
     38 F         143.3038  142.0872  168.7719 F       1  UNL1       -0.1669
     39 F         142.5505  140.6256  168.8552 F       1  UNL1       -0.1669
     40 F         141.5857  142.7612  168.7003 F       1  UNL1       -0.1669
@<TRIPOS>BOND
     1     5     6    1
     2     6     7    2
     3     6     8   am
     4     8     9    1
     5     9    10    1
     6    10    11   ar
     7    11    12   ar
     8    12    17    1
     9    17    18    2
    10    17    19    2
    11    17    20    1
    12    20    21    1
    13    21    22    1
    14    12    13   ar
    15    13    14   ar
    16    14    15   ar
    17    15    16    1
    18    16     1    1
    19     1     2    2
    20     1     3   am
    21     3    24    1
    22    24    25   ar
    23    25    26   ar
    24    26    27   ar
    25    27    30    1
    26    30    31    1
    27    30    33    1
    28    33    34    1
    29    33    35    1
    30    33    36    1
    31    30    37    1
    32    37    38    1
    33    37    39    1
    34    37    40    1
    35    27    28   ar
    36    28    29   ar
    37    16     8    1
    38    29    24   ar
    39    15    10   ar
    40    22    23    1
    41     3     4    1
    42    31    32    1
@<TRIPOS>MOLECULE
*****
 40 42 0 0 0
SMALL
GASTEIGER

@<TRIPOS>ATOM
      1 C         139.9643  141.8960  162.6362 C.2     1  UNL1        0.2485
      2 O         141.4260  141.6695  162.8852 O.2     1  UNL1       -0.2726
      3 N         139.0138  141.9993  163.7921 N.am    1  UNL1       -0.2823
      4 H         138.0544  142.1479  163.6287 H       1  UNL1        0.1549
      5 C         136.7403  139.1642  160.4502 C.3     1  UNL1        0.0949
      6 C         137.7439  139.9640  161.2267 C.2     1  UNL1        0.2269
      7 O         138.0589  139.5966  162.6465 O.2     1  UNL1       -0.2748
      8 N         138.4324  141.1311  160.5836 N.am    1  UNL1       -0.2655
      9 C         138.2212  141.6152  159.1796 C.3     1  UNL1        0.1206
     10 C         139.1113  142.8024  158.9598 C.ar    1  UNL1       -0.0030
     11 C         139.3269  143.6883  157.7687 C.ar    1  UNL1        0.0155
     12 C         140.3038  144.8239  157.8458 C.ar    1  UNL1        0.1055
     13 C         141.0651  145.0736  159.1139 C.ar    1  UNL1        0.0181
     14 C         140.8495  144.1877  160.3049 C.ar    1  UNL1       -0.0011
     15 C         139.8726  143.0521  160.2279 C.ar    1  UNL1        0.0022
     16 C         139.4530  142.0192  161.2314 C.3     1  UNL1        0.1750
     17 S         140.5195  145.7099  156.6547 S.O2    1  UNL1        0.0112
     18 O         141.7828  146.2322  157.2719 O.2     1  UNL1       -0.1685
     19 O         139.2561  145.1876  156.0375 O.2     1  UNL1       -0.1685
     20 C         140.7350  146.5959  155.4637 C.3     1  UNL1        0.1875
     21 C         139.7182  147.6413  155.1127 C.3     1  UNL1        0.1629
     22 O         138.5343  147.8659  156.0060 O.3     1  UNL1       -0.3801
     23 H         137.9678  147.0786  155.9960 H       1  UNL1        0.2105
     24 C         139.5252  141.8761  165.1969 C.ar    1  UNL1        0.0503
     25 C         139.5489  140.5366  165.8716 C.ar    1  UNL1        0.0144
     26 C         140.0602  140.4134  167.2764 C.ar    1  UNL1       -0.0002
     27 C         140.5478  141.6297  168.0063 C.ar    1  UNL1        0.0182
     28 C         140.5240  142.9692  167.3316 C.ar    1  UNL1       -0.0002
     29 C         140.0127  143.0924  165.9268 C.ar    1  UNL1        0.0144
     30 C         141.0591  141.5066  169.4111 C.3     1  UNL1        0.2827
     31 O         142.4275  141.9111  168.9486 O.3     1  UNL1       -0.3692
     32 H         143.0341  141.9232  169.7054 H       1  UNL1        0.2112
     33 C         141.5704  141.3835  170.8159 C.3     1  UNL1        0.4311
     34 F         142.0816  141.2603  172.2207 F       1  UNL1       -0.1669
     35 F         142.4438  140.2380  170.3977 F       1  UNL1       -0.1669
     36 F         141.0953  142.0459  171.1623 F       1  UNL1       -0.1669
     37 C         139.6907  141.1021  169.8737 C.3     1  UNL1        0.4311
     38 F         138.3223  140.6977  170.3362 F       1  UNL1       -0.1669
     39 F         139.2935  141.8805  169.7292 F       1  UNL1       -0.1669
     40 F         139.8542  139.6674  170.2799 F       1  UNL1       -0.1669
@<TRIPOS>BOND
     1     5     6    1
     2     6     7    2
     3     6     8   am
     4     8     9    1
     5     9    10    1
     6    10    11   ar
     7    11    12   ar
     8    12    17    1
     9    17    18    2
    10    17    19    2
    11    17    20    1
    12    20    21    1
    13    21    22    1
    14    12    13   ar
    15    13    14   ar
    16    14    15   ar
    17    15    16    1
    18    16     1    1
    19     1     2    2
    20     1     3   am
    21     3    24    1
    22    24    25   ar
    23    25    26   ar
    24    26    27   ar
    25    27    30    1
    26    30    31    1
    27    30    33    1
    28    33    34    1
    29    33    35    1
    30    33    36    1
    31    30    37    1
    32    37    38    1
    33    37    39    1
    34    37    40    1
    35    27    28   ar
    36    28    29   ar
    37    16     8    1
    38    29    24   ar
    39    15    10   ar
    40    22    23    1
    41     3     4    1
    42    31    32    1
@<TRIPOS>MOLECULE
*****
 40 42 0 0 0
SMALL
GASTEIGER

@<TRIPOS>ATOM
      1 C         142.4572  138.8718  158.1679 C.2     1  UNL1        0.2485
      2 O         142.6683  137.6946  159.0731 O.2     1  UNL1       -0.2726
      3 N         142.3069  138.6639  156.6899 N.am    1  UNL1       -0.2823
      4 H         142.1683  139.4365  156.0957 H       1  UNL1        0.1549
      5 C         145.5664  142.4221  157.5652 C.3     1  UNL1        0.0949
      6 C         144.6489  141.2423  157.6921 C.2     1  UNL1        0.2269
      7 O         144.9767  139.9583  156.9893 O.2     1  UNL1       -0.2748
      8 N         143.4036  141.3464  158.5218 N.am    1  UNL1       -0.2655
      9 C         142.9471  142.5584  159.2785 C.3     1  UNL1        0.1206
     10 C         141.6575  142.2179  159.9649 C.ar    1  UNL1       -0.0030
     11 C         140.7494  143.0194  160.8496 C.ar    1  UNL1        0.0155
     12 C         139.5007  142.3983  161.4019 C.ar    1  UNL1        0.1055
     13 C         139.1602  140.9758  161.0694 C.ar    1  UNL1        0.0181
     14 C         140.0684  140.1744  160.1846 C.ar    1  UNL1       -0.0011
     15 C         141.3171  140.7954  159.6324 C.ar    1  UNL1        0.0022
     16 C         142.3962  140.2568  158.7405 C.3     1  UNL1        0.1750
     17 S         138.5924  143.1997  162.2867 S.O2    1  UNL1        0.0112
     18 O         139.0873  144.4642  161.6495 O.2     1  UNL1       -0.1685
     19 O         138.0976  141.9353  162.9240 O.2     1  UNL1       -0.1685
     20 C         137.6842  144.0011  163.1715 C.3     1  UNL1        0.1875
     21 C         138.1608  144.4578  164.5185 C.3     1  UNL1        0.1629
     22 O         139.4301  145.2481  164.6367 O.3     1  UNL1       -0.3801
     23 H         140.1821  144.6926  164.3783 H       1  UNL1        0.2105
     24 C         142.3679  137.2788  156.1173 C.ar    1  UNL1        0.0503
     25 C         141.1007  136.5468  155.7884 C.ar    1  UNL1        0.0144
     26 C         141.1616  135.1617  155.2158 C.ar    1  UNL1       -0.0002
     27 C         142.4899  134.5088  154.9722 C.ar    1  UNL1        0.0182
     28 C         143.7571  135.2408  155.3011 C.ar    1  UNL1       -0.0002
     29 C         143.6961  136.6259  155.8737 C.ar    1  UNL1        0.0144
     30 C         142.5509  133.1237  154.3996 C.3     1  UNL1        0.2827
     31 O         142.2950  133.6786  153.0297 O.3     1  UNL1       -0.3692
     32 H         142.2771  132.9537  152.3853 H       1  UNL1        0.2112
     33 C         142.6120  131.7386  153.8270 C.3     1  UNL1        0.4311
     34 F         142.6731  130.3534  153.2545 F       1  UNL1       -0.1669
     35 F         141.1222  131.6199  153.9552 F       1  UNL1       -0.1669
     36 F         143.4896  131.7083  153.7107 F       1  UNL1       -0.1669
     37 C         142.8069  132.5687  155.7694 C.3     1  UNL1        0.4311
     38 F         143.0627  132.0138  157.1394 F       1  UNL1       -0.1669
     39 F         141.9631  132.5520  156.0385 F       1  UNL1       -0.1669
     40 F         144.2961  132.3960  155.8188 F       1  UNL1       -0.1669
@<TRIPOS>BOND
     1     5     6    1
     2     6     7    2
     3     6     8   am
     4     8     9    1
     5     9    10    1
     6    10    11   ar
     7    11    12   ar
     8    12    17    1
     9    17    18    2
    10    17    19    2
    11    17    20    1
    12    20    21    1
    13    21    22    1
    14    12    13   ar
    15    13    14   ar
    16    14    15   ar
    17    15    16    1
    18    16     1    1
    19     1     2    2
    20     1     3   am
    21     3    24    1
    22    24    25   ar
    23    25    26   ar
    24    26    27   ar
    25    27    30    1
    26    30    31    1
    27    30    33    1
    28    33    34    1
    29    33    35    1
    30    33    36    1
    31    30    37    1
    32    37    38    1
    33    37    39    1
    34    37    40    1
    35    27    28   ar
    36    28    29   ar
    37    16     8    1
    38    29    24   ar
    39    15    10   ar
    40    22    23    1
    41     3     4    1
    42    31    32    1
