@<TRIPOS>MOLECULE
*****
 29 31 0 0 0
SMALL
GASTEIGER

@<TRIPOS>ATOM
      1 C         142.4188  138.5032  163.6252 C.ar    1  UNL1        0.1593
      2 C         143.0875  138.4821  164.9677 C.ar    1  UNL1        0.1357
      3 N         142.3370  138.9305  166.1866 N.ar    1  UNL1       -0.2390
      4 C         140.9179  139.4001  166.0630 C.ar    1  UNL1        0.1030
      5 C         139.9332  139.8977  167.0792 C.ar    1  UNL1        0.0895
      6 C         138.6558  140.2264  166.3648 C.ar    1  UNL1        0.0823
      7 N         138.8510  139.9319  164.9070 N.ar    1  UNL1       -0.3189
      8 C         140.2491  139.4213  164.7205 C.ar    1  UNL1        0.0814
      9 C         140.9996  138.9728  163.5016 C.ar    1  UNL1        0.0572
     10 C         140.1821  140.0413  168.5514 C.2     1  UNL1        0.2489
     11 O         139.0504  139.8808  169.5227 O.2     1  UNL1       -0.2700
     12 N         141.5629  140.3455  169.0524 N.am    1  UNL1       -0.2984
     13 H         142.3057  140.4509  168.4150 H       1  UNL1        0.1498
     14 C         141.8118  140.4892  170.5246 C.3     1  UNL1        0.1215
     15 C         141.6797  141.8319  171.1801 C.3     1  UNL1        0.1583
     16 O         140.4899  142.1315  172.0430 O.3     1  UNL1       -0.3802
     17 H         139.6881  142.1377  171.4972 H       1  UNL1        0.2105
     18 C         144.0750  139.0113  161.6891 C.3     1  UNL1        0.2525
     19 O         143.1692  138.0548  162.4063 O.3     1  UNL1       -0.4698
     20 C         137.8279  140.1158  163.8256 C.3     1  UNL1        0.1518
     21 C         138.0646  141.1140  162.7312 C.ar    1  UNL1        0.0841
     22 N         138.3078  140.6444  161.3276 N.ar    1  UNL1       -0.2265
     23 C         138.5445  141.6426  160.2332 C.ar    1  UNL1        0.2012
     24 N         138.5378  143.1103  160.5424 N.ar    1  UNL1       -0.1896
     25 C         138.2946  143.5799  161.9462 C.ar    1  UNL1        0.2234
     26 C         138.0579  142.5818  163.0406 C.ar    1  UNL1        0.0468
     27 C         137.8147  143.0514  164.4442 C.3     1  UNL1        0.0372
     28 O         138.2880  145.0476  162.2554 O.3     1  UNL1       -0.4563
     29 C         139.5510  145.8467  162.1277 C.3     1  UNL1        0.2542
@<TRIPOS>BOND
     1    18    19    1
     2    19     1    1
     3     1     2   ar
     4     2     3   ar
     5     3     4   ar
     6     4     5   ar
     7     5    10    1
     8    10    11    2
     9    10    12   am
    10    12    14    1
    11    14    15    1
    12    15    16    1
    13     5     6   ar
    14     6     7   ar
    15     7    20    1
    16    20    21    1
    17    21    22   ar
    18    22    23   ar
    19    23    24   ar
    20    24    25   ar
    21    25    28    1
    22    28    29    1
    23    25    26   ar
    24    26    27    1
    25     7     8   ar
    26     8     9   ar
    27     9     1   ar
    28     8     4   ar
    29    26    21   ar
    30    12    13    1
    31    16    17    1
@<TRIPOS>MOLECULE
*****
 29 31 0 0 0
SMALL
GASTEIGER

@<TRIPOS>ATOM
      1 C         143.4968  138.7164  162.9831 C.ar    1  UNL1        0.1593
      2 C         144.5435  139.1149  163.9809 C.ar    1  UNL1        0.1357
      3 N         144.1401  139.5406  165.3615 N.ar    1  UNL1       -0.2390
      4 C         142.6900  139.5678  165.7443 C.ar    1  UNL1        0.1030
      5 C         141.9957  139.9396  167.0209 C.ar    1  UNL1        0.0895
      6 C         140.5199  139.7709  166.8121 C.ar    1  UNL1        0.0823
      7 N         140.3021  139.2948  165.4064 N.ar    1  UNL1       -0.3189
      8 C         141.6434  139.1693  164.7465 C.ar    1  UNL1        0.0814
      9 C         142.0468  138.7436  163.3659 C.ar    1  UNL1        0.0572
     10 C         142.6605  140.3994  168.2844 C.2     1  UNL1        0.2489
     11 O         142.9490  139.4170  169.3806 O.2     1  UNL1       -0.2700
     12 N         143.0369  141.8418  168.4519 N.am    1  UNL1       -0.2984
     13 H         142.8475  142.4866  167.7325 H       1  UNL1        0.1498
     14 C         143.7017  142.3016  169.7154 C.3     1  UNL1        0.1215
     15 C         142.9255  143.0927  170.7263 C.3     1  UNL1        0.1583
     16 O         142.2107  142.3887  171.8414 O.3     1  UNL1       -0.3802
     17 H         141.4947  141.8465  171.4750 H       1  UNL1        0.2105
     18 C         143.6962  139.2187  160.4419 C.3     1  UNL1        0.2525
     19 O         143.9002  138.2907  161.6025 O.3     1  UNL1       -0.4698
     20 C         138.9760  138.9965  164.7720 C.3     1  UNL1        0.1518
     21 C         138.4479  139.8850  163.6849 C.ar    1  UNL1        0.0841
     22 N         138.0807  141.3068  163.9905 N.ar    1  UNL1       -0.2265
     23 C         137.5526  142.1953  162.9034 C.ar    1  UNL1        0.2012
     24 N         137.3917  141.6619  161.5107 N.ar    1  UNL1       -0.1896
     25 C         137.7590  140.2399  161.2052 C.ar    1  UNL1        0.2234
     26 C         138.2871  139.3515  162.2922 C.ar    1  UNL1        0.0468
     27 C         138.6543  137.9296  161.9866 C.3     1  UNL1        0.0372
     28 O         137.5981  139.7065  159.8125 O.3     1  UNL1       -0.4563
     29 C         137.9592  140.5628  158.6350 C.3     1  UNL1        0.2542
@<TRIPOS>BOND
     1    18    19    1
     2    19     1    1
     3     1     2   ar
     4     2     3   ar
     5     3     4   ar
     6     4     5   ar
     7     5    10    1
     8    10    11    2
     9    10    12   am
    10    12    14    1
    11    14    15    1
    12    15    16    1
    13     5     6   ar
    14     6     7   ar
    15     7    20    1
    16    20    21    1
    17    21    22   ar
    18    22    23   ar
    19    23    24   ar
    20    24    25   ar
    21    25    28    1
    22    28    29    1
    23    25    26   ar
    24    26    27    1
    25     7     8   ar
    26     8     9   ar
    27     9     1   ar
    28     8     4   ar
    29    26    21   ar
    30    12    13    1
    31    16    17    1
@<TRIPOS>MOLECULE
*****
 29 31 0 0 0
SMALL
GASTEIGER

@<TRIPOS>ATOM
      1 C         141.7731  142.2525  169.6160 C.ar    1  UNL1        0.1593
      2 C         140.9850  141.6826  170.7579 C.ar    1  UNL1        0.1357
      3 N         139.8318  140.7622  170.4879 N.ar    1  UNL1       -0.2390
      4 C         139.4668  140.4116  169.0759 C.ar    1  UNL1        0.1030
      5 C         138.3896  139.5376  168.5051 C.ar    1  UNL1        0.0895
      6 C         138.5120  139.5673  167.0104 C.ar    1  UNL1        0.0823
      7 N         139.6648  140.4597  166.6573 N.ar    1  UNL1       -0.3189
      8 C         140.2549  140.9815  167.9339 C.ar    1  UNL1        0.0814
      9 C         141.4081  141.9020  168.2040 C.ar    1  UNL1        0.0572
     10 C         137.3692  138.7688  169.2911 C.2     1  UNL1        0.2489
     11 O         136.5973  137.6613  168.6372 O.2     1  UNL1       -0.2700
     12 N         137.1207  139.1075  170.7310 N.am    1  UNL1       -0.2984
     13 H         137.6272  139.8344  171.1603 H       1  UNL1        0.1498
     14 C         136.1003  138.3388  171.5170 C.3     1  UNL1        0.1215
     15 C         136.5324  137.2101  172.4055 C.3     1  UNL1        0.1583
     16 O         135.6763  135.9850  172.5320 O.3     1  UNL1       -0.3802
     17 H         134.8389  136.2187  172.9622 H       1  UNL1        0.2105
     18 C         144.3282  142.6396  169.8834 C.3     1  UNL1        0.2525
     19 O         142.9263  143.1730  169.8861 O.3     1  UNL1       -0.4698
     20 C         140.1435  140.7750  165.2712 C.3     1  UNL1        0.1518
     21 C         139.6074  141.9744  164.5473 C.ar    1  UNL1        0.0841
     22 N         139.7636  143.3420  165.1433 N.ar    1  UNL1       -0.2265
     23 C         139.2275  144.5414  164.4195 C.ar    1  UNL1        0.2012
     24 N         138.5352  144.3732  163.0994 N.ar    1  UNL1       -0.1896
     25 C         138.3790  143.0056  162.5034 C.ar    1  UNL1        0.2234
     26 C         138.9151  141.8062  163.2273 C.ar    1  UNL1        0.0468
     27 C         138.7588  140.4386  162.6311 C.3     1  UNL1        0.0372
     28 O         137.6867  142.8374  161.1834 O.3     1  UNL1       -0.4563
     29 C         138.4920  142.7289  159.9225 C.3     1  UNL1        0.2542
@<TRIPOS>BOND
     1    18    19    1
     2    19     1    1
     3     1     2   ar
     4     2     3   ar
     5     3     4   ar
     6     4     5   ar
     7     5    10    1
     8    10    11    2
     9    10    12   am
    10    12    14    1
    11    14    15    1
    12    15    16    1
    13     5     6   ar
    14     6     7   ar
    15     7    20    1
    16    20    21    1
    17    21    22   ar
    18    22    23   ar
    19    23    24   ar
    20    24    25   ar
    21    25    28    1
    22    28    29    1
    23    25    26   ar
    24    26    27    1
    25     7     8   ar
    26     8     9   ar
    27     9     1   ar
    28     8     4   ar
    29    26    21   ar
    30    12    13    1
    31    16    17    1
@<TRIPOS>MOLECULE
*****
 29 31 0 0 0
SMALL
GASTEIGER

@<TRIPOS>ATOM
      1 C         141.8177  142.2695  169.9388 C.ar    1  UNL1        0.1593
      2 C         140.9799  141.6859  171.0376 C.ar    1  UNL1        0.1357
      3 N         139.8303  140.7817  170.7046 N.ar    1  UNL1       -0.2390
      4 C         139.5185  140.4612  169.2729 C.ar    1  UNL1        0.1030
      5 C         138.4571  139.6084  168.6434 C.ar    1  UNL1        0.0895
      6 C         138.6390  139.6650  167.1555 C.ar    1  UNL1        0.0823
      7 N         139.8128  140.5528  166.8654 N.ar    1  UNL1       -0.3189
      8 C         140.3563  141.0448  168.1741 C.ar    1  UNL1        0.0814
      9 C         141.5059  141.9490  168.5071 C.ar    1  UNL1        0.0572
     10 C         137.3996  138.8349  169.3735 C.2     1  UNL1        0.2489
     11 O         136.5862  137.8057  168.6461 O.2     1  UNL1       -0.2700
     12 N         137.1553  139.0905  170.8313 N.am    1  UNL1       -0.2984
     13 H         137.6891  139.7660  171.3088 H       1  UNL1        0.1498
     14 C         136.0977  138.3170  171.5615 C.3     1  UNL1        0.1215
     15 C         136.4828  137.1570  172.4311 C.3     1  UNL1        0.1583
     16 O         135.5251  136.0203  172.6327 O.3     1  UNL1       -0.3802
     17 H         134.7466  136.3356  173.1180 H       1  UNL1        0.2105
     18 C         144.3731  142.7362  169.9847 C.3     1  UNL1        0.2525
     19 O         142.9674  143.1736  170.2718 O.3     1  UNL1       -0.4698
     20 C         140.3489  140.8893  165.5056 C.3     1  UNL1        0.1518
     21 C         141.7836  140.6042  165.1734 C.ar    1  UNL1        0.0841
     22 N         142.3432  139.2286  165.3840 N.ar    1  UNL1       -0.2265
     23 C         143.7778  138.9435  165.0518 C.ar    1  UNL1        0.2012
     24 N         144.6530  140.0340  164.5089 N.ar    1  UNL1       -0.1896
     25 C         144.0934  141.4098  164.2983 C.ar    1  UNL1        0.2234
     26 C         142.6587  141.6949  164.6305 C.ar    1  UNL1        0.0468
     27 C         142.0992  143.0706  164.4198 C.3     1  UNL1        0.0372
     28 O         144.9686  142.5003  163.7554 O.3     1  UNL1       -0.4563
     29 C         144.9745  142.7951  162.2847 C.3     1  UNL1        0.2542
@<TRIPOS>BOND
     1    18    19    1
     2    19     1    1
     3     1     2   ar
     4     2     3   ar
     5     3     4   ar
     6     4     5   ar
     7     5    10    1
     8    10    11    2
     9    10    12   am
    10    12    14    1
    11    14    15    1
    12    15    16    1
    13     5     6   ar
    14     6     7   ar
    15     7    20    1
    16    20    21    1
    17    21    22   ar
    18    22    23   ar
    19    23    24   ar
    20    24    25   ar
    21    25    28    1
    22    28    29    1
    23    25    26   ar
    24    26    27    1
    25     7     8   ar
    26     8     9   ar
    27     9     1   ar
    28     8     4   ar
    29    26    21   ar
    30    12    13    1
    31    16    17    1
@<TRIPOS>MOLECULE
*****
 29 31 0 0 0
SMALL
GASTEIGER

@<TRIPOS>ATOM
      1 C         139.4910  139.3567  163.3850 C.ar    1  UNL1        0.1593
      2 C         138.7910  139.3439  164.7116 C.ar    1  UNL1        0.1357
      3 N         139.5892  139.3738  165.9812 N.ar    1  UNL1       -0.2390
      4 C         141.0875  139.4167  165.9243 C.ar    1  UNL1        0.1030
      5 C         142.1322  139.4527  167.0000 C.ar    1  UNL1        0.0895
      6 C         143.4779  139.4879  166.3384 C.ar    1  UNL1        0.0823
      7 N         143.2650  139.4736  164.8536 N.ar    1  UNL1       -0.3189
      8 C         141.7875  139.4296  164.5977 C.ar    1  UNL1        0.0814
      9 C         140.9893  139.3996  163.3281 C.ar    1  UNL1        0.0572
     10 C         141.8761  139.4535  168.4780 C.2     1  UNL1        0.2489
     11 O         142.9084  138.9057  169.4184 O.2     1  UNL1       -0.2700
     12 N         140.5877  140.0020  169.0157 N.am    1  UNL1       -0.2984
     13 H         139.9101  140.3615  168.3985 H       1  UNL1        0.1498
     14 C         140.3316  140.0027  170.4936 C.3     1  UNL1        0.1215
     15 C         141.0231  141.0010  171.3741 C.3     1  UNL1        0.1583
     16 O         142.3648  140.6795  171.9627 O.3     1  UNL1       -0.3802
     17 H         142.2752  139.9448  172.5896 H       1  UNL1        0.2105
     18 C         137.8195  138.1471  161.8063 C.3     1  UNL1        0.2525
     19 O         138.6928  139.3268  162.1154 O.3     1  UNL1       -0.4698
     20 C         144.3405  139.4988  163.8084 C.3     1  UNL1        0.1518
     21 C         144.3140  140.5412  162.7301 C.ar    1  UNL1        0.0841
     22 N         144.1120  140.1362  161.3001 N.ar    1  UNL1       -0.2265
     23 C         144.0856  141.1787  160.2218 C.ar    1  UNL1        0.2012
     24 N         144.2612  142.6262  160.5737 N.ar    1  UNL1       -0.1896
     25 C         144.4633  143.0312  162.0038 C.ar    1  UNL1        0.2234
     26 C         144.4897  141.9888  163.0820 C.ar    1  UNL1        0.0468
     27 C         144.6917  142.3939  164.5121 C.3     1  UNL1        0.0372
     28 O         144.6389  144.4788  162.3556 O.3     1  UNL1       -0.4563
     29 C         143.5823  145.1921  163.1461 C.3     1  UNL1        0.2542
@<TRIPOS>BOND
     1    18    19    1
     2    19     1    1
     3     1     2   ar
     4     2     3   ar
     5     3     4   ar
     6     4     5   ar
     7     5    10    1
     8    10    11    2
     9    10    12   am
    10    12    14    1
    11    14    15    1
    12    15    16    1
    13     5     6   ar
    14     6     7   ar
    15     7    20    1
    16    20    21    1
    17    21    22   ar
    18    22    23   ar
    19    23    24   ar
    20    24    25   ar
    21    25    28    1
    22    28    29    1
    23    25    26   ar
    24    26    27    1
    25     7     8   ar
    26     8     9   ar
    27     9     1   ar
    28     8     4   ar
    29    26    21   ar
    30    12    13    1
    31    16    17    1
@<TRIPOS>MOLECULE
*****
 29 31 0 0 0
SMALL
GASTEIGER

@<TRIPOS>ATOM
      1 C         138.7372  144.2488  163.1127 C.ar    1  UNL1        0.1593
      2 C         139.2113  144.5999  164.4918 C.ar    1  UNL1        0.1357
      3 N         139.3972  143.5219  165.5181 N.ar    1  UNL1       -0.2390
      4 C         139.1091  142.0928  165.1653 C.ar    1  UNL1        0.1030
      5 C         139.1994  140.8246  165.9613 C.ar    1  UNL1        0.0895
      6 C         138.7812  139.6897  165.0741 C.ar    1  UNL1        0.0823
      7 N         138.4323  140.2564  163.7299 N.ar    1  UNL1       -0.3189
      8 C         138.6350  141.7417  163.7863 C.ar    1  UNL1        0.0814
      9 C         138.4490  142.8197  162.7599 C.ar    1  UNL1        0.0572
     10 C         139.6321  140.7113  167.3931 C.2     1  UNL1        0.2489
     11 O         139.1863  139.5427  168.2211 O.2     1  UNL1       -0.2700
     12 N         140.5106  141.7666  167.9969 N.am    1  UNL1       -0.2984
     13 H         140.8032  142.5336  167.4534 H       1  UNL1        0.1498
     14 C         140.9433  141.6533  169.4286 C.3     1  UNL1        0.1215
     15 C         140.0938  142.2390  170.5174 C.3     1  UNL1        0.1583
     16 O         140.5595  142.1862  171.9423 O.3     1  UNL1       -0.3802
     17 H         140.5895  141.2631  172.2387 H       1  UNL1        0.2105
     18 C         139.6991  146.2207  161.7211 C.3     1  UNL1        0.2525
     19 O         138.5512  145.3268  162.0864 O.3     1  UNL1       -0.4698
     20 C         137.9631  139.4752  162.5384 C.3     1  UNL1        0.1518
     21 C         138.7367  139.5289  161.2544 C.ar    1  UNL1        0.0841
     22 N         138.2492  140.3806  160.1201 N.ar    1  UNL1       -0.2265
     23 C         139.0228  140.4343  158.8361 C.ar    1  UNL1        0.2012
     24 N         140.2840  139.6362  158.6864 N.ar    1  UNL1       -0.1896
     25 C         140.7715  138.7844  159.8208 C.ar    1  UNL1        0.2234
     26 C         139.9979  138.7307  161.1048 C.ar    1  UNL1        0.0468
     27 C         140.4855  137.8789  162.2391 C.3     1  UNL1        0.0372
     28 O         142.0327  137.9862  159.6711 O.3     1  UNL1       -0.4563
     29 C         142.6563  137.8159  158.3175 C.3     1  UNL1        0.2542
@<TRIPOS>BOND
     1    18    19    1
     2    19     1    1
     3     1     2   ar
     4     2     3   ar
     5     3     4   ar
     6     4     5   ar
     7     5    10    1
     8    10    11    2
     9    10    12   am
    10    12    14    1
    11    14    15    1
    12    15    16    1
    13     5     6   ar
    14     6     7   ar
    15     7    20    1
    16    20    21    1
    17    21    22   ar
    18    22    23   ar
    19    23    24   ar
    20    24    25   ar
    21    25    28    1
    22    28    29    1
    23    25    26   ar
    24    26    27    1
    25     7     8   ar
    26     8     9   ar
    27     9     1   ar
    28     8     4   ar
    29    26    21   ar
    30    12    13    1
    31    16    17    1
@<TRIPOS>MOLECULE
*****
 29 31 0 0 0
SMALL
GASTEIGER

@<TRIPOS>ATOM
      1 C         139.6063  138.3822  163.3314 C.ar    1  UNL1        0.1593
      2 C         138.9129  138.3693  164.6614 C.ar    1  UNL1        0.1357
      3 N         139.6719  138.7212  165.9064 N.ar    1  UNL1       -0.2390
      4 C         141.1243  139.0860  165.8214 C.ar    1  UNL1        0.1030
      5 C         142.1243  139.4756  166.8693 C.ar    1  UNL1        0.0895
      6 C         143.4359  139.7293  166.1870 C.ar    1  UNL1        0.0823
      7 N         143.2464  139.4966  164.7173 N.ar    1  UNL1       -0.3189
      8 C         141.8177  139.0990  164.4914 C.ar    1  UNL1        0.0814
      9 C         141.0587  138.7470  163.2464 C.ar    1  UNL1        0.0572
     10 C         141.8594  139.5912  168.3412 C.2     1  UNL1        0.2489
     11 O         142.9454  139.2739  169.3260 O.2     1  UNL1       -0.2700
     12 N         140.5083  140.0241  168.8283 N.am    1  UNL1       -0.2984
     13 H         139.7955  140.2323  168.1820 H       1  UNL1        0.1498
     14 C         140.2433  140.1397  170.3002 C.3     1  UNL1        0.1215
     15 C         140.9977  141.1428  171.1216 C.3     1  UNL1        0.1583
     16 O         142.2242  140.7237  171.8766 O.3     1  UNL1       -0.3802
     17 H         141.9761  140.0966  172.5739 H       1  UNL1        0.2105
     18 C         137.7661  138.9408  161.5845 C.3     1  UNL1        0.2525
     19 O         138.8473  138.0303  162.0864 O.3     1  UNL1       -0.4698
     20 C         144.3004  139.6367  163.6593 C.3     1  UNL1        0.1518
     21 C         144.2939  140.8276  162.7473 C.ar    1  UNL1        0.0841
     22 N         144.4573  142.2069  163.3136 N.ar    1  UNL1       -0.2265
     23 C         144.4508  143.3978  162.4016 C.ar    1  UNL1        0.2012
     24 N         144.2809  143.2093  160.9232 N.ar    1  UNL1       -0.1896
     25 C         144.1175  141.8299  160.3569 C.ar    1  UNL1        0.2234
     26 C         144.1240  140.6390  161.2689 C.ar    1  UNL1        0.0468
     27 C         143.9607  139.2597  160.7025 C.3     1  UNL1        0.0372
     28 O         143.9477  141.6415  158.8785 O.3     1  UNL1       -0.4563
     29 C         144.0435  142.8205  157.9562 C.3     1  UNL1        0.2542
@<TRIPOS>BOND
     1    18    19    1
     2    19     1    1
     3     1     2   ar
     4     2     3   ar
     5     3     4   ar
     6     4     5   ar
     7     5    10    1
     8    10    11    2
     9    10    12   am
    10    12    14    1
    11    14    15    1
    12    15    16    1
    13     5     6   ar
    14     6     7   ar
    15     7    20    1
    16    20    21    1
    17    21    22   ar
    18    22    23   ar
    19    23    24   ar
    20    24    25   ar
    21    25    28    1
    22    28    29    1
    23    25    26   ar
    24    26    27    1
    25     7     8   ar
    26     8     9   ar
    27     9     1   ar
    28     8     4   ar
    29    26    21   ar
    30    12    13    1
    31    16    17    1
@<TRIPOS>MOLECULE
*****
 29 31 0 0 0
SMALL
GASTEIGER

@<TRIPOS>ATOM
      1 C         139.9425  144.7922  163.3877 C.ar    1  UNL1        0.1593
      2 C         138.9789  144.6284  164.5255 C.ar    1  UNL1        0.1357
      3 N         139.3866  143.8629  165.7494 N.ar    1  UNL1       -0.2390
      4 C         140.7579  143.2612  165.8354 C.ar    1  UNL1        0.1030
      5 C         141.4370  142.4598  166.9062 C.ar    1  UNL1        0.0895
      6 C         142.8203  142.1283  166.4302 C.ar    1  UNL1        0.0823
      7 N         142.9962  142.7248  165.0651 N.ar    1  UNL1       -0.3189
      8 C         141.7215  143.4249  164.6976 C.ar    1  UNL1        0.0814
      9 C         141.3137  144.1904  163.4737 C.ar    1  UNL1        0.0572
     10 C         140.8380  142.0601  168.2220 C.2     1  UNL1        0.2489
     11 O         141.1397  142.8570  169.4564 O.2     1  UNL1       -0.2700
     12 N         139.9371  140.8636  168.3034 N.am    1  UNL1       -0.2984
     13 H         139.7390  140.3405  167.4932 H       1  UNL1        0.1498
     14 C         139.3380  140.4639  169.6192 C.3     1  UNL1        0.1215
     15 C         140.2099  139.8915  170.6973 C.3     1  UNL1        0.1583
     16 O         140.6670  140.7594  171.8320 O.3     1  UNL1       -0.3802
     17 H         141.2592  141.4490  171.4934 H       1  UNL1        0.2105
     18 C         140.3882  145.5113  160.9313 C.3     1  UNL1        0.2525
     19 O         139.5347  145.5577  162.1639 O.3     1  UNL1       -0.4698
     20 C         144.2300  142.6366  164.2167 C.3     1  UNL1        0.1518
     21 C         144.1601  142.0134  162.8541 C.ar    1  UNL1        0.0841
     22 N         144.0455  142.8824  161.6368 N.ar    1  UNL1       -0.2265
     23 C         143.9756  142.2592  160.2742 C.ar    1  UNL1        0.2012
     24 N         144.0205  140.7669  160.1288 N.ar    1  UNL1       -0.1896
     25 C         144.1352  139.8979  161.3461 C.ar    1  UNL1        0.2234
     26 C         144.2050  140.5211  162.7087 C.ar    1  UNL1        0.0468
     27 C         144.3197  139.6520  163.9259 C.3     1  UNL1        0.0372
     28 O         144.1801  138.4056  161.2007 O.3     1  UNL1       -0.4563
     29 C         143.0276  137.6781  160.5742 C.3     1  UNL1        0.2542
@<TRIPOS>BOND
     1    18    19    1
     2    19     1    1
     3     1     2   ar
     4     2     3   ar
     5     3     4   ar
     6     4     5   ar
     7     5    10    1
     8    10    11    2
     9    10    12   am
    10    12    14    1
    11    14    15    1
    12    15    16    1
    13     5     6   ar
    14     6     7   ar
    15     7    20    1
    16    20    21    1
    17    21    22   ar
    18    22    23   ar
    19    23    24   ar
    20    24    25   ar
    21    25    28    1
    22    28    29    1
    23    25    26   ar
    24    26    27    1
    25     7     8   ar
    26     8     9   ar
    27     9     1   ar
    28     8     4   ar
    29    26    21   ar
    30    12    13    1
    31    16    17    1
@<TRIPOS>MOLECULE
*****
 29 31 0 0 0
SMALL
GASTEIGER

@<TRIPOS>ATOM
      1 C         140.5785  139.4437  163.3787 C.ar    1  UNL1        0.1593
      2 C         140.5048  138.9057  164.7769 C.ar    1  UNL1        0.1357
      3 N         141.1999  139.6247  165.8948 N.ar    1  UNL1       -0.2390
      4 C         141.9687  140.8819  165.6145 C.ar    1  UNL1        0.1030
      5 C         142.7498  141.8007  166.5065 C.ar    1  UNL1        0.0895
      6 C         143.3062  142.9067  165.6595 C.ar    1  UNL1        0.0823
      7 N         142.8690  142.6713  164.2441 N.ar    1  UNL1       -0.3189
      8 C         142.0424  141.4199  164.2163 C.ar    1  UNL1        0.0814
      9 C         141.3473  140.7008  163.0984 C.ar    1  UNL1        0.0572
     10 C         142.9408  141.6416  167.9857 C.2     1  UNL1        0.2489
     11 O         143.6141  142.7244  168.7758 O.2     1  UNL1       -0.2700
     12 N         142.4587  140.3996  168.6749 N.am    1  UNL1       -0.2984
     13 H         142.0168  139.6889  168.1564 H       1  UNL1        0.1498
     14 C         142.6498  140.2405  170.1541 C.3     1  UNL1        0.1215
     15 C         141.7520  140.9698  171.1091 C.3     1  UNL1        0.1583
     16 O         142.2040  142.2598  171.7269 O.3     1  UNL1       -0.3802
     17 H         142.9597  142.0911  172.3112 H       1  UNL1        0.2105
     18 C         138.5635  138.0553  162.5056 C.3     1  UNL1        0.2525
     19 O         139.8834  138.7246  162.2607 O.3     1  UNL1       -0.4698
     20 C         143.2002  143.5356  163.0637 C.3     1  UNL1        0.1518
     21 C         142.1081  144.2623  162.3363 C.ar    1  UNL1        0.0841
     22 N         141.1784  145.1669  163.0893 N.ar    1  UNL1       -0.2265
     23 C         140.0862  145.8937  162.3620 C.ar    1  UNL1        0.2012
     24 N         139.9239  145.7158  160.8814 N.ar    1  UNL1       -0.1896
     25 C         140.8537  144.8112  160.1283 C.ar    1  UNL1        0.2234
     26 C         141.9458  144.0844  160.8557 C.ar    1  UNL1        0.0468
     27 C         142.8756  143.1798  160.1026 C.3     1  UNL1        0.0372
     28 O         140.6913  144.6333  158.6478 O.3     1  UNL1       -0.4563
     29 C         139.6830  143.6586  158.1156 C.3     1  UNL1        0.2542
@<TRIPOS>BOND
     1    18    19    1
     2    19     1    1
     3     1     2   ar
     4     2     3   ar
     5     3     4   ar
     6     4     5   ar
     7     5    10    1
     8    10    11    2
     9    10    12   am
    10    12    14    1
    11    14    15    1
    12    15    16    1
    13     5     6   ar
    14     6     7   ar
    15     7    20    1
    16    20    21    1
    17    21    22   ar
    18    22    23   ar
    19    23    24   ar
    20    24    25   ar
    21    25    28    1
    22    28    29    1
    23    25    26   ar
    24    26    27    1
    25     7     8   ar
    26     8     9   ar
    27     9     1   ar
    28     8     4   ar
    29    26    21   ar
    30    12    13    1
    31    16    17    1
