@<TRIPOS>MOLECULE
*****
 33 37 0 0 0
SMALL
GASTEIGER

@<TRIPOS>ATOM
      1 N         140.5056  141.7920  167.8469 N.ar    1  UNL1       -0.2339
      2 N         140.7604  142.8454  166.8099 N.ar    1  UNL1       -0.1679
      3 C         139.9976  142.4727  165.5733 C.ar    1  UNL1        0.1065
      4 C         139.2712  141.1889  165.8460 C.ar    1  UNL1        0.0860
      5 C         138.3645  140.3487  164.9964 C.ar    1  UNL1        0.1316
      6 N         138.0506  140.7695  163.5913 N.pl3   1  UNL1       -0.3425
      7 N         137.7718  139.0877  165.5519 N.ar    1  UNL1       -0.2093
      8 C         138.0857  138.6670  166.9570 C.ar    1  UNL1        0.2014
      9 N         138.9925  139.5072  167.8066 N.ar    1  UNL1       -0.2050
     10 C         139.5852  140.7682  167.2511 C.ar    1  UNL1        0.1653
     11 H         138.4396  141.5971  163.2267 H       1  UNL1        0.1437
     12 H         137.4555  140.2181  163.0336 H       1  UNL1        0.1437
     13 C         139.9665  143.2478  164.2894 C.ar    1  UNL1        0.0196
     14 C         138.9723  144.3560  164.1062 C.ar    1  UNL1        0.0031
     15 C         138.9413  145.1309  162.8223 C.ar    1  UNL1        0.0193
     16 C         139.9043  144.7977  161.7216 C.ar    1  UNL1        0.0844
     17 N         139.8732  145.5728  160.4377 N.ar    1  UNL1       -0.2117
     18 C         140.8363  145.2396  159.3370 C.ar    1  UNL1        0.2247
     19 C         141.8305  144.1314  159.5203 C.ar    1  UNL1        0.0577
     20 C         141.8615  143.3564  160.8042 C.ar    1  UNL1        0.0063
     21 C         140.8985  143.6896  161.9048 C.ar    1  UNL1        0.0180
     22 C         140.9295  142.9146  163.1887 C.ar    1  UNL1        0.0031
     23 O         140.8053  146.0146  158.0532 O.3     1  UNL1       -0.4640
     24 C         139.9389  145.5526  156.9190 C.3     1  UNL1        0.1678
     25 C         139.1200  145.8611  155.7008 C.3     1  UNL1        0.0473
     26 C         139.2575  144.4441  156.1729 C.3     1  UNL1        0.0473
     27 C         141.0717  141.7667  169.2357 C.3     1  UNL1        0.1314
     28 C         140.7349  140.3121  170.7426 C.3     1  UNL1        0.0045
     29 C         141.8084  140.5545  169.7234 C.3     1  UNL1        0.0497
     30 C         142.8819  140.7969  168.7041 C.3     1  UNL1        0.0045
     31 C         142.5451  139.3423  170.2110 C.3     1  UNL1        0.1389
     32 O         143.6490  139.4895  171.2159 O.3     1  UNL1       -0.3819
     33 H         144.3861  139.9780  170.8173 H       1  UNL1        0.2104
@<TRIPOS>BOND
     1    28    29    1
     2    29    30    1
     3    29    31    1
     4    31    32    1
     5    29    27    1
     6    27     1    1
     7     1     2   ar
     8     2     3   ar
     9     3    13    1
    10    13    14   ar
    11    14    15   ar
    12    15    16   ar
    13    16    17   ar
    14    17    18   ar
    15    18    23    1
    16    23    24    1
    17    24    25    1
    18    25    26    1
    19    18    19   ar
    20    19    20   ar
    21    20    21   ar
    22    21    22   ar
    23     3     4   ar
    24     4     5   ar
    25     5     6    1
    26     5     7   ar
    27     7     8   ar
    28     8     9   ar
    29     9    10   ar
    30    10     1   ar
    31    22    13   ar
    32    10     4   ar
    33    21    16   ar
    34    26    24    1
    35    32    33    1
    36     6    11    1
    37     6    12    1
@<TRIPOS>MOLECULE
*****
 33 37 0 0 0
SMALL
GASTEIGER

@<TRIPOS>ATOM
      1 N         140.5291  141.5859  168.0581 N.ar    1  UNL1       -0.2339
      2 N         140.9380  142.6223  167.0537 N.ar    1  UNL1       -0.1679
      3 C         140.2419  142.3150  165.7611 C.ar    1  UNL1        0.1065
      4 C         139.4029  141.0887  165.9665 C.ar    1  UNL1        0.0860
      5 C         138.5001  140.3242  165.0443 C.ar    1  UNL1        0.1316
      6 N         138.3226  140.7748  163.6246 N.pl3   1  UNL1       -0.3425
      7 N         137.7749  139.1090  165.5417 N.ar    1  UNL1       -0.2093
      8 C         137.9524  138.6584  166.9613 C.ar    1  UNL1        0.2014
      9 N         138.8552  139.4230  167.8836 N.ar    1  UNL1       -0.2050
     10 C         139.5804  140.6381  167.3862 C.ar    1  UNL1        0.1653
     11 H         138.7986  141.5723  163.2982 H       1  UNL1        0.1437
     12 H         137.7302  140.2730  163.0193 H       1  UNL1        0.1437
     13 C         140.3635  143.0968  164.4866 C.ar    1  UNL1        0.0196
     14 C         139.5309  144.3271  164.2791 C.ar    1  UNL1        0.0031
     15 C         139.6526  145.1088  163.0047 C.ar    1  UNL1        0.0193
     16 C         140.6068  144.6601  161.9378 C.ar    1  UNL1        0.0844
     17 N         140.7284  145.4419  160.6634 N.ar    1  UNL1       -0.2117
     18 C         141.6825  144.9933  159.5965 C.ar    1  UNL1        0.2247
     19 C         142.5151  143.7629  159.8040 C.ar    1  UNL1        0.0577
     20 C         142.3935  142.9812  161.0784 C.ar    1  UNL1        0.0063
     21 C         141.4393  143.4298  162.1453 C.ar    1  UNL1        0.0180
     22 C         141.3177  142.6481  163.4197 C.ar    1  UNL1        0.0031
     23 O         141.8042  145.7749  158.3221 O.3     1  UNL1       -0.4640
     24 C         140.6257  145.8977  157.4021 C.3     1  UNL1        0.1678
     25 C         139.5429  146.7302  156.7821 C.3     1  UNL1        0.0473
     26 C         139.6675  145.2778  156.4288 C.3     1  UNL1        0.0473
     27 C         140.9884  141.5106  169.4841 C.3     1  UNL1        0.1314
     28 C         141.4604  143.4484  170.2067 C.3     1  UNL1        0.0045
     29 C         142.2481  142.2082  169.9042 C.3     1  UNL1        0.0497
     30 C         143.0358  140.9681  169.6016 C.3     1  UNL1        0.0045
     31 C         143.5078  142.9058  170.3242 C.3     1  UNL1        0.1389
     32 O         143.4433  144.0573  171.2834 O.3     1  UNL1       -0.3819
     33 H         142.9779  144.7994  170.8668 H       1  UNL1        0.2104
@<TRIPOS>BOND
     1    28    29    1
     2    29    30    1
     3    29    31    1
     4    31    32    1
     5    29    27    1
     6    27     1    1
     7     1     2   ar
     8     2     3   ar
     9     3    13    1
    10    13    14   ar
    11    14    15   ar
    12    15    16   ar
    13    16    17   ar
    14    17    18   ar
    15    18    23    1
    16    23    24    1
    17    24    25    1
    18    25    26    1
    19    18    19   ar
    20    19    20   ar
    21    20    21   ar
    22    21    22   ar
    23     3     4   ar
    24     4     5   ar
    25     5     6    1
    26     5     7   ar
    27     7     8   ar
    28     8     9   ar
    29     9    10   ar
    30    10     1   ar
    31    22    13   ar
    32    10     4   ar
    33    21    16   ar
    34    26    24    1
    35    32    33    1
    36     6    11    1
    37     6    12    1
@<TRIPOS>MOLECULE
*****
 33 37 0 0 0
SMALL
GASTEIGER

@<TRIPOS>ATOM
      1 N         140.3674  141.6400  167.6212 N.ar    1  UNL1       -0.2339
      2 N         141.0358  142.4968  166.5873 N.ar    1  UNL1       -0.1679
      3 C         140.7269  141.9204  165.2374 C.ar    1  UNL1        0.1065
      4 C         139.8675  140.7073  165.4370 C.ar    1  UNL1        0.0860
      5 C         139.2585  139.7381  164.4676 C.ar    1  UNL1        0.1316
      6 N         139.4807  139.9115  162.9943 N.pl3   1  UNL1       -0.3425
      7 N         138.4274  138.5956  164.9714 N.ar    1  UNL1       -0.2093
      8 C         138.2052  138.4222  166.4447 C.ar    1  UNL1        0.2014
      9 N         138.8142  139.3915  167.4141 N.ar    1  UNL1       -0.2050
     10 C         139.6453  140.5340  166.9103 C.ar    1  UNL1        0.1653
     11 H         140.0261  140.6614  162.6636 H       1  UNL1        0.1437
     12 H         139.0810  139.2754  162.3580 H       1  UNL1        0.1437
     13 C         141.1950  142.4620  163.9192 C.ar    1  UNL1        0.0196
     14 C         142.5061  142.0116  163.3463 C.ar    1  UNL1        0.0031
     15 C         142.9742  142.5532  162.0282 C.ar    1  UNL1        0.0193
     16 C         142.1313  143.5452  161.2829 C.ar    1  UNL1        0.0844
     17 N         142.5995  144.0868  159.9648 N.ar    1  UNL1       -0.2117
     18 C         141.7566  145.0789  159.2195 C.ar    1  UNL1        0.2247
     19 C         140.4455  145.5293  159.7925 C.ar    1  UNL1        0.0577
     20 C         139.9774  144.9877  161.1106 C.ar    1  UNL1        0.0063
     21 C         140.8203  143.9957  161.8558 C.ar    1  UNL1        0.0180
     22 C         140.3521  143.4541  163.1739 C.ar    1  UNL1        0.0031
     23 O         142.2247  145.6205  157.9014 O.3     1  UNL1       -0.4640
     24 C         141.2251  146.0105  156.8531 C.3     1  UNL1        0.1678
     25 C         140.8675  146.2128  155.4105 C.3     1  UNL1        0.0473
     26 C         139.8515  146.4836  156.4802 C.3     1  UNL1        0.0473
     27 C         140.4131  141.8519  169.1055 C.3     1  UNL1        0.1314
     28 C         142.3086  140.9935  169.5176 C.3     1  UNL1        0.0045
     29 C         141.6763  142.3326  169.7559 C.3     1  UNL1        0.0497
     30 C         141.0440  143.6718  169.9942 C.3     1  UNL1        0.0045
     31 C         142.9396  142.8134  170.4064 C.3     1  UNL1        0.1389
     32 O         142.9751  144.1558  171.0747 O.3     1  UNL1       -0.3819
     33 H         142.8604  144.8516  170.4087 H       1  UNL1        0.2104
@<TRIPOS>BOND
     1    28    29    1
     2    29    30    1
     3    29    31    1
     4    31    32    1
     5    29    27    1
     6    27     1    1
     7     1     2   ar
     8     2     3   ar
     9     3    13    1
    10    13    14   ar
    11    14    15   ar
    12    15    16   ar
    13    16    17   ar
    14    17    18   ar
    15    18    23    1
    16    23    24    1
    17    24    25    1
    18    25    26    1
    19    18    19   ar
    20    19    20   ar
    21    20    21   ar
    22    21    22   ar
    23     3     4   ar
    24     4     5   ar
    25     5     6    1
    26     5     7   ar
    27     7     8   ar
    28     8     9   ar
    29     9    10   ar
    30    10     1   ar
    31    22    13   ar
    32    10     4   ar
    33    21    16   ar
    34    26    24    1
    35    32    33    1
    36     6    11    1
    37     6    12    1
@<TRIPOS>MOLECULE
*****
 33 37 0 0 0
SMALL
GASTEIGER

@<TRIPOS>ATOM
      1 N         141.3037  141.1639  167.1119 N.ar    1  UNL1       -0.2339
      2 N         142.2187  141.2013  165.9239 N.ar    1  UNL1       -0.1679
      3 C         141.6819  140.2506  164.8954 C.ar    1  UNL1        0.1065
      4 C         140.4351  139.6257  165.4477 C.ar    1  UNL1        0.0860
      5 C         139.4824  138.6155  164.8801 C.ar    1  UNL1        0.1316
      6 N         139.7162  138.0511  163.5102 N.pl3   1  UNL1       -0.3425
      7 N         138.2960  138.1699  165.6825 N.ar    1  UNL1       -0.2093
      8 C         138.0622  138.7344  167.0524 C.ar    1  UNL1        0.2014
      9 N         139.0150  139.7445  167.6200 N.ar    1  UNL1       -0.2050
     10 C         140.2013  140.1901  166.8176 C.ar    1  UNL1        0.1653
     11 H         140.4949  138.3436  162.9836 H       1  UNL1        0.1437
     12 H         139.0910  137.3881  163.1377 H       1  UNL1        0.1437
     13 C         142.2858  139.9734  163.5505 C.ar    1  UNL1        0.0196
     14 C         143.1391  138.7565  163.3480 C.ar    1  UNL1        0.0031
     15 C         143.7430  138.4794  162.0032 C.ar    1  UNL1        0.0193
     16 C         143.4936  139.4191  160.8610 C.ar    1  UNL1        0.0844
     17 N         144.0975  139.1420  159.5161 N.ar    1  UNL1       -0.2117
     18 C         143.8481  140.0817  158.3739 C.ar    1  UNL1        0.2247
     19 C         142.9947  141.2986  158.5765 C.ar    1  UNL1        0.0577
     20 C         142.3908  141.5757  159.9213 C.ar    1  UNL1        0.0063
     21 C         142.6403  140.6360  161.0635 C.ar    1  UNL1        0.0180
     22 C         142.0364  140.9131  162.4083 C.ar    1  UNL1        0.0031
     23 O         144.4520  139.8046  157.0291 O.3     1  UNL1       -0.4640
     24 C         145.3917  140.7965  156.4101 C.3     1  UNL1        0.1678
     25 C         146.1030  141.3344  155.2040 C.3     1  UNL1        0.0473
     26 C         146.3079  141.9765  156.5440 C.3     1  UNL1        0.0473
     27 C         141.4630  141.9605  168.3729 C.3     1  UNL1        0.1314
     28 C         142.5099  140.4517  169.4347 C.3     1  UNL1        0.0045
     29 C         141.2991  141.2942  169.7067 C.3     1  UNL1        0.0497
     30 C         140.0883  142.1368  169.9788 C.3     1  UNL1        0.0045
     31 C         141.1351  140.6279  171.0406 C.3     1  UNL1        0.1389
     32 O         142.2314  140.7122  172.0608 O.3     1  UNL1       -0.3819
     33 H         143.0121  140.2365  171.7366 H       1  UNL1        0.2104
@<TRIPOS>BOND
     1    28    29    1
     2    29    30    1
     3    29    31    1
     4    31    32    1
     5    29    27    1
     6    27     1    1
     7     1     2   ar
     8     2     3   ar
     9     3    13    1
    10    13    14   ar
    11    14    15   ar
    12    15    16   ar
    13    16    17   ar
    14    17    18   ar
    15    18    23    1
    16    23    24    1
    17    24    25    1
    18    25    26    1
    19    18    19   ar
    20    19    20   ar
    21    20    21   ar
    22    21    22   ar
    23     3     4   ar
    24     4     5   ar
    25     5     6    1
    26     5     7   ar
    27     7     8   ar
    28     8     9   ar
    29     9    10   ar
    30    10     1   ar
    31    22    13   ar
    32    10     4   ar
    33    21    16   ar
    34    26    24    1
    35    32    33    1
    36     6    11    1
    37     6    12    1
@<TRIPOS>MOLECULE
*****
 33 37 0 0 0
SMALL
GASTEIGER

@<TRIPOS>ATOM
      1 N         140.6521  141.1164  167.1350 N.ar    1  UNL1       -0.2339
      2 N         140.3539  142.1835  166.1239 N.ar    1  UNL1       -0.1679
      3 C         141.2932  142.0027  164.9685 C.ar    1  UNL1        0.1065
      4 C         142.1720  140.8239  165.2656 C.ar    1  UNL1        0.0860
      5 C         143.2818  140.1786  164.4898 C.ar    1  UNL1        0.1316
      6 N         143.6780  140.7263  163.1508 N.pl3   1  UNL1       -0.3425
      7 N         143.9954  138.9855  165.0531 N.ar    1  UNL1       -0.2093
      8 C         143.5992  138.4377  166.3921 C.ar    1  UNL1        0.2014
      9 N         142.4893  139.0831  167.1678 N.ar    1  UNL1       -0.2050
     10 C         141.7758  140.2762  166.6046 C.ar    1  UNL1        0.1653
     11 H         143.2097  141.5094  162.7812 H       1  UNL1        0.1437
     12 H         144.4065  140.3028  162.6417 H       1  UNL1        0.1437
     13 C         141.3448  142.8517  163.7329 C.ar    1  UNL1        0.0196
     14 C         142.2411  144.0535  163.6855 C.ar    1  UNL1        0.0031
     15 C         142.2926  144.9023  162.4499 C.ar    1  UNL1        0.0193
     16 C         141.4478  144.5494  161.2617 C.ar    1  UNL1        0.0844
     17 N         141.4994  145.3984  160.0261 N.ar    1  UNL1       -0.2117
     18 C         140.6546  145.0455  158.8379 C.ar    1  UNL1        0.2247
     19 C         139.7583  143.8436  158.8853 C.ar    1  UNL1        0.0577
     20 C         139.7068  142.9947  160.1209 C.ar    1  UNL1        0.0063
     21 C         140.5515  143.3476  161.3091 C.ar    1  UNL1        0.0180
     22 C         140.5000  142.4987  162.5447 C.ar    1  UNL1        0.0031
     23 O         140.7061  145.8943  157.6023 O.3     1  UNL1       -0.4640
     24 C         139.8322  145.5643  156.4286 C.3     1  UNL1        0.1678
     25 C         139.5030  144.6810  155.2618 C.3     1  UNL1        0.0473
     26 C         138.6479  145.8761  155.5625 C.3     1  UNL1        0.0473
     27 C         139.9499  140.9235  168.4464 C.3     1  UNL1        0.1314
     28 C         140.4999  142.7771  169.3190 C.3     1  UNL1        0.0045
     29 C         140.6190  141.3376  169.7235 C.3     1  UNL1        0.0497
     30 C         140.7380  139.8981  170.1279 C.3     1  UNL1        0.0045
     31 C         141.2880  141.7518  171.0005 C.3     1  UNL1        0.1389
     32 O         140.4607  142.1851  172.1743 O.3     1  UNL1       -0.3819
     33 H         139.9994  143.0104  171.9577 H       1  UNL1        0.2104
@<TRIPOS>BOND
     1    28    29    1
     2    29    30    1
     3    29    31    1
     4    31    32    1
     5    29    27    1
     6    27     1    1
     7     1     2   ar
     8     2     3   ar
     9     3    13    1
    10    13    14   ar
    11    14    15   ar
    12    15    16   ar
    13    16    17   ar
    14    17    18   ar
    15    18    23    1
    16    23    24    1
    17    24    25    1
    18    25    26    1
    19    18    19   ar
    20    19    20   ar
    21    20    21   ar
    22    21    22   ar
    23     3     4   ar
    24     4     5   ar
    25     5     6    1
    26     5     7   ar
    27     7     8   ar
    28     8     9   ar
    29     9    10   ar
    30    10     1   ar
    31    22    13   ar
    32    10     4   ar
    33    21    16   ar
    34    26    24    1
    35    32    33    1
    36     6    11    1
    37     6    12    1
@<TRIPOS>MOLECULE
*****
 33 37 0 0 0
SMALL
GASTEIGER

@<TRIPOS>ATOM
      1 N         140.8154  141.0706  167.0448 N.ar    1  UNL1       -0.2339
      2 N         141.7098  141.0753  165.8407 N.ar    1  UNL1       -0.1679
      3 C         141.2345  140.0028  164.9059 C.ar    1  UNL1        0.1065
      4 C         140.0463  139.3352  165.5323 C.ar    1  UNL1        0.0860
      5 C         139.1667  138.2116  165.0698 C.ar    1  UNL1        0.1316
      6 N         139.4258  137.5518  163.7479 N.pl3   1  UNL1       -0.3425
      7 N         138.0281  137.7479  165.9292 N.ar    1  UNL1       -0.2093
      8 C         137.7690  138.4078  167.2511 C.ar    1  UNL1        0.2014
      9 N         138.6487  139.5314  167.7136 N.ar    1  UNL1       -0.2050
     10 C         139.7872  139.9951  166.8543 C.ar    1  UNL1        0.1653
     11 H         140.1731  137.8561  163.1839 H       1  UNL1        0.1437
     12 H         138.8485  136.8143  163.4443 H       1  UNL1        0.1437
     13 C         141.8410  139.6584  163.5779 C.ar    1  UNL1        0.0196
     14 C         143.1004  138.8461  163.5165 C.ar    1  UNL1        0.0031
     15 C         143.7068  138.5017  162.1885 C.ar    1  UNL1        0.0193
     16 C         143.0537  138.9696  160.9218 C.ar    1  UNL1        0.0844
     17 N         143.6601  138.6251  159.5938 N.ar    1  UNL1       -0.2117
     18 C         143.0070  139.0931  158.3271 C.ar    1  UNL1        0.2247
     19 C         141.7474  139.9054  158.3885 C.ar    1  UNL1        0.0577
     20 C         141.1411  140.2498  159.7165 C.ar    1  UNL1        0.0063
     21 C         141.7942  139.7819  160.9832 C.ar    1  UNL1        0.0180
     22 C         141.1878  140.1263  162.3112 C.ar    1  UNL1        0.0031
     23 O         143.6134  138.7487  156.9991 O.3     1  UNL1       -0.4640
     24 C         143.2964  137.4350  156.3479 C.3     1  UNL1        0.1678
     25 C         142.6214  136.6540  155.2596 C.3     1  UNL1        0.0473
     26 C         143.4224  135.9409  156.3083 C.3     1  UNL1        0.0473
     27 C         140.9291  141.9813  168.2312 C.3     1  UNL1        0.1314
     28 C         139.9972  141.8954  170.1349 C.3     1  UNL1        0.0045
     29 C         141.3049  141.4233  169.5719 C.3     1  UNL1        0.0497
     30 C         142.6125  140.9512  169.0088 C.3     1  UNL1        0.0045
     31 C         141.6806  140.8652  170.9125 C.3     1  UNL1        0.1389
     32 O         140.6111  140.4848  171.8930 O.3     1  UNL1       -0.3819
     33 H         140.1342  141.2806  172.1763 H       1  UNL1        0.2104
@<TRIPOS>BOND
     1    28    29    1
     2    29    30    1
     3    29    31    1
     4    31    32    1
     5    29    27    1
     6    27     1    1
     7     1     2   ar
     8     2     3   ar
     9     3    13    1
    10    13    14   ar
    11    14    15   ar
    12    15    16   ar
    13    16    17   ar
    14    17    18   ar
    15    18    23    1
    16    23    24    1
    17    24    25    1
    18    25    26    1
    19    18    19   ar
    20    19    20   ar
    21    20    21   ar
    22    21    22   ar
    23     3     4   ar
    24     4     5   ar
    25     5     6    1
    26     5     7   ar
    27     7     8   ar
    28     8     9   ar
    29     9    10   ar
    30    10     1   ar
    31    22    13   ar
    32    10     4   ar
    33    21    16   ar
    34    26    24    1
    35    32    33    1
    36     6    11    1
    37     6    12    1
@<TRIPOS>MOLECULE
*****
 33 37 0 0 0
SMALL
GASTEIGER

@<TRIPOS>ATOM
      1 N         140.6597  141.7785  164.4384 N.ar    1  UNL1       -0.2339
      2 N         140.9483  141.8757  162.9696 N.ar    1  UNL1       -0.1679
      3 C         142.1001  140.9653  162.6623 C.ar    1  UNL1        0.1065
      4 C         142.5234  140.3054  163.9412 C.ar    1  UNL1        0.0860
      5 C         143.6044  139.3119  164.2479 C.ar    1  UNL1        0.1316
      6 N         144.4946  138.8093  163.1502 N.pl3   1  UNL1       -0.3425
      7 N         143.7953  138.8209  165.6524 N.ar    1  UNL1       -0.2093
      8 C         142.9051  139.3235  166.7501 C.ar    1  UNL1        0.2014
      9 N         141.8241  140.3171  166.4432 N.ar    1  UNL1       -0.2050
     10 C         141.6332  140.8080  165.0389 C.ar    1  UNL1        0.1653
     11 H         144.3693  139.1315  162.2284 H       1  UNL1        0.1437
     12 H         145.2041  138.1571  163.3516 H       1  UNL1        0.1437
     13 C         142.7198  140.7521  161.3130 C.ar    1  UNL1        0.0196
     14 C         142.4523  139.4847  160.5566 C.ar    1  UNL1        0.0031
     15 C         143.0721  139.2715  159.2074 C.ar    1  UNL1        0.0193
     16 C         143.9593  140.3258  158.6145 C.ar    1  UNL1        0.0844
     17 N         144.5790  140.1126  157.2652 N.ar    1  UNL1       -0.2117
     18 C         145.4662  141.1668  156.6724 C.ar    1  UNL1        0.2247
     19 C         145.7337  142.4342  157.4289 C.ar    1  UNL1        0.0577
     20 C         145.1139  142.6474  158.7781 C.ar    1  UNL1        0.0063
     21 C         144.2267  141.5932  159.3709 C.ar    1  UNL1        0.0180
     22 C         143.6070  141.8063  160.7201 C.ar    1  UNL1        0.0031
     23 O         146.0859  140.9537  155.3232 O.3     1  UNL1       -0.4640
     24 C         147.3674  141.6479  154.9683 C.3     1  UNL1        0.1678
     25 C         148.8515  141.7968  155.1275 C.3     1  UNL1        0.0473
     26 C         148.1028  142.7015  154.1943 C.3     1  UNL1        0.0473
     27 C         139.5862  142.5214  165.1770 C.3     1  UNL1        0.1314
     28 C         137.7531  142.2029  164.1581 C.3     1  UNL1        0.0045
     29 C         138.6249  143.3938  164.4255 C.3     1  UNL1        0.0497
     30 C         139.4966  144.5848  164.6929 C.3     1  UNL1        0.0045
     31 C         137.6636  144.2662  163.6740 C.3     1  UNL1        0.1389
     32 O         137.6048  144.2011  162.1766 O.3     1  UNL1       -0.3819
     33 H         138.4410  144.5240  161.8059 H       1  UNL1        0.2104
@<TRIPOS>BOND
     1    28    29    1
     2    29    30    1
     3    29    31    1
     4    31    32    1
     5    29    27    1
     6    27     1    1
     7     1     2   ar
     8     2     3   ar
     9     3    13    1
    10    13    14   ar
    11    14    15   ar
    12    15    16   ar
    13    16    17   ar
    14    17    18   ar
    15    18    23    1
    16    23    24    1
    17    24    25    1
    18    25    26    1
    19    18    19   ar
    20    19    20   ar
    21    20    21   ar
    22    21    22   ar
    23     3     4   ar
    24     4     5   ar
    25     5     6    1
    26     5     7   ar
    27     7     8   ar
    28     8     9   ar
    29     9    10   ar
    30    10     1   ar
    31    22    13   ar
    32    10     4   ar
    33    21    16   ar
    34    26    24    1
    35    32    33    1
    36     6    11    1
    37     6    12    1
@<TRIPOS>MOLECULE
*****
 33 37 0 0 0
SMALL
GASTEIGER

@<TRIPOS>ATOM
      1 N         142.7095  136.4865  156.8441 N.ar    1  UNL1       -0.2339
      2 N         142.9414  137.2882  158.0904 N.ar    1  UNL1       -0.1679
      3 C         141.7398  138.1582  158.3123 C.ar    1  UNL1        0.1065
      4 C         140.7652  137.8941  157.2031 C.ar    1  UNL1        0.0860
      5 C         139.4094  138.4609  156.9021 C.ar    1  UNL1        0.1316
      6 N         138.8101  139.4941  157.8096 N.pl3   1  UNL1       -0.3425
      7 N         138.6529  137.9947  155.6937 N.ar    1  UNL1       -0.2093
      8 C         139.2522  136.9615  154.7862 C.ar    1  UNL1        0.2014
      9 N         140.6080  136.3947  155.0872 N.ar    1  UNL1       -0.2050
     10 C         141.3644  136.8610  156.2956 C.ar    1  UNL1        0.1653
     11 H         139.3066  139.8001  158.6027 H       1  UNL1        0.1437
     12 H         137.9203  139.8661  157.6121 H       1  UNL1        0.1437
     13 C         141.5466  139.1228  159.4447 C.ar    1  UNL1        0.0196
     14 C         141.9283  140.5636  159.2760 C.ar    1  UNL1        0.0031
     15 C         141.7351  141.5281  160.4083 C.ar    1  UNL1        0.0193
     16 C         141.1603  141.0520  161.7094 C.ar    1  UNL1        0.0844
     17 N         140.9671  142.0166  162.8418 N.ar    1  UNL1       -0.2117
     18 C         140.3923  141.5405  164.1428 C.ar    1  UNL1        0.2247
     19 C         140.0106  140.0996  164.3116 C.ar    1  UNL1        0.0577
     20 C         140.2038  139.1350  163.1792 C.ar    1  UNL1        0.0063
     21 C         140.7786  139.6112  161.8781 C.ar    1  UNL1        0.0180
     22 C         140.9718  138.6466  160.7458 C.ar    1  UNL1        0.0031
     23 O         140.1991  142.5050  165.2752 O.3     1  UNL1       -0.4640
     24 C         139.1698  143.5909  165.1681 C.3     1  UNL1        0.1678
     25 C         138.6599  144.9421  165.5735 C.3     1  UNL1        0.0473
     26 C         137.8968  144.1204  164.5773 C.3     1  UNL1        0.0473
     27 C         143.6563  135.4860  156.2503 C.3     1  UNL1        0.1314
     28 C         143.0670  134.0092  154.8462 C.3     1  UNL1        0.0045
     29 C         143.3409  134.0213  156.3209 C.3     1  UNL1        0.0497
     30 C         143.6149  134.0333  157.7956 C.3     1  UNL1        0.0045
     31 C         143.0256  132.5565  156.3914 C.3     1  UNL1        0.1389
     32 O         142.8295  131.8949  157.7232 O.3     1  UNL1       -0.3819
     33 H         143.6653  131.9049  158.2154 H       1  UNL1        0.2104
@<TRIPOS>BOND
     1    28    29    1
     2    29    30    1
     3    29    31    1
     4    31    32    1
     5    29    27    1
     6    27     1    1
     7     1     2   ar
     8     2     3   ar
     9     3    13    1
    10    13    14   ar
    11    14    15   ar
    12    15    16   ar
    13    16    17   ar
    14    17    18   ar
    15    18    23    1
    16    23    24    1
    17    24    25    1
    18    25    26    1
    19    18    19   ar
    20    19    20   ar
    21    20    21   ar
    22    21    22   ar
    23     3     4   ar
    24     4     5   ar
    25     5     6    1
    26     5     7   ar
    27     7     8   ar
    28     8     9   ar
    29     9    10   ar
    30    10     1   ar
    31    22    13   ar
    32    10     4   ar
    33    21    16   ar
    34    26    24    1
    35    32    33    1
    36     6    11    1
    37     6    12    1
@<TRIPOS>MOLECULE
*****
 33 37 0 0 0
SMALL
GASTEIGER

@<TRIPOS>ATOM
      1 N         140.5527  141.7291  167.0166 N.ar    1  UNL1       -0.2339
      2 N         139.6568  141.8681  165.8216 N.ar    1  UNL1       -0.1679
      3 C         140.0131  140.7853  164.8467 C.ar    1  UNL1        0.1065
      4 C         141.1292  139.9770  165.4391 C.ar    1  UNL1        0.0860
      5 C         141.8850  138.7852  164.9306 C.ar    1  UNL1        0.1316
      6 N         141.5514  138.2019  163.5896 N.pl3   1  UNL1       -0.3425
      7 N         142.9742  138.1767  165.7633 N.ar    1  UNL1       -0.2093
      8 C         143.3078  138.7600  167.1044 C.ar    1  UNL1        0.2014
      9 N         142.5520  139.9518  167.6128 N.ar    1  UNL1       -0.2050
     10 C         141.4628  140.5603  166.7802 C.ar    1  UNL1        0.1653
     11 H         140.8365  138.6013  163.0431 H       1  UNL1        0.1437
     12 H         142.0474  137.4197  163.2558 H       1  UNL1        0.1437
     13 C         139.3667  140.5517  163.5133 C.ar    1  UNL1        0.0196
     14 C         138.4769  139.3615  163.3094 C.ar    1  UNL1        0.0031
     15 C         137.8306  139.1279  161.9761 C.ar    1  UNL1        0.0193
     16 C         138.0741  140.0846  160.8467 C.ar    1  UNL1        0.0844
     17 N         137.4278  139.8510  159.5134 N.ar    1  UNL1       -0.2117
     18 C         137.6713  140.8077  158.3840 C.ar    1  UNL1        0.2247
     19 C         138.5612  141.9979  158.5880 C.ar    1  UNL1        0.0577
     20 C         139.2075  142.2314  159.9213 C.ar    1  UNL1        0.0063
     21 C         138.9640  141.2748  161.0506 C.ar    1  UNL1        0.0180
     22 C         139.6103  141.5083  162.3839 C.ar    1  UNL1        0.0031
     23 O         137.0250  140.5741  157.0507 O.3     1  UNL1       -0.4640
     24 C         137.0796  141.6376  155.9942 C.3     1  UNL1        0.1678
     25 C         137.7463  142.2450  154.7957 C.3     1  UNL1        0.0473
     26 C         136.5073  142.8720  155.3628 C.3     1  UNL1        0.0473
     27 C         140.5408  142.6050  168.2342 C.3     1  UNL1        0.1314
     28 C         142.0919  142.8458  169.6611 C.3     1  UNL1        0.0045
     29 C         140.8423  142.0199  169.5821 C.3     1  UNL1        0.0497
     30 C         139.5926  141.1940  169.5030 C.3     1  UNL1        0.0045
     31 C         141.1438  141.4348  170.9299 C.3     1  UNL1        0.1389
     32 O         140.5503  142.0480  172.1635 O.3     1  UNL1       -0.3819
     33 H         140.9132  142.9388  172.2884 H       1  UNL1        0.2104
@<TRIPOS>BOND
     1    28    29    1
     2    29    30    1
     3    29    31    1
     4    31    32    1
     5    29    27    1
     6    27     1    1
     7     1     2   ar
     8     2     3   ar
     9     3    13    1
    10    13    14   ar
    11    14    15   ar
    12    15    16   ar
    13    16    17   ar
    14    17    18   ar
    15    18    23    1
    16    23    24    1
    17    24    25    1
    18    25    26    1
    19    18    19   ar
    20    19    20   ar
    21    20    21   ar
    22    21    22   ar
    23     3     4   ar
    24     4     5   ar
    25     5     6    1
    26     5     7   ar
    27     7     8   ar
    28     8     9   ar
    29     9    10   ar
    30    10     1   ar
    31    22    13   ar
    32    10     4   ar
    33    21    16   ar
    34    26    24    1
    35    32    33    1
    36     6    11    1
    37     6    12    1
