@<TRIPOS>MOLECULE
*****
 27 30 0 0 0
SMALL
GASTEIGER

@<TRIPOS>ATOM
      1 N         141.6188  142.3261  168.2676 N.3     1  UNL1       -0.2709
      2 C         141.3364  143.1132  169.5129 C.3     1  UNL1        0.0614
      3 C         142.5852  143.1302  170.3437 C.3     1  UNL1        0.0175
      4 C         143.6394  142.3537  169.6119 C.3     1  UNL1        0.0175
      5 C         143.0422  141.8567  168.3288 C.3     1  UNL1        0.0614
      6 C         142.1919  141.4979  167.1341 C.3     1  UNL1        0.0595
      7 C         140.7937  142.0353  167.2121 C.3     1  UNL1        0.1686
      8 C         140.3659  142.8429  168.4015 C.3     1  UNL1        0.0595
      9 C         140.6483  142.0558  167.1563 C.3     1  UNL1        0.1056
     10 C         141.5801  144.9918  162.8677 C.3     1  UNL1        0.0381
     11 C         140.9133  144.3994  164.0736 C.ar    1  UNL1        0.0073
     12 C         139.5540  144.7596  164.5955 C.ar    1  UNL1        0.0024
     13 C         139.2893  143.9255  165.8138 C.ar    1  UNL1        0.0037
     14 C         140.4850  143.0499  166.0448 C.ar    1  UNL1        0.0231
     15 S         141.4887  143.3427  164.9693 S.2     1  UNL1       -0.0942
     16 O         139.8231  141.7650  166.1007 O.3     1  UNL1       -0.4791
     17 C         139.3865  140.3594  165.8116 C.ar    1  UNL1        0.1385
     18 C         138.5925  139.5962  166.8300 C.ar    1  UNL1        0.0369
     19 C         138.1559  138.1906  166.5409 C.ar    1  UNL1        0.0033
     20 C         138.5132  137.5482  165.2334 C.ar    1  UNL1        0.0047
     21 C         139.3071  138.3114  164.2150 C.ar    1  UNL1        0.0561
     22 C         139.7438  139.7170  164.5041 C.ar    1  UNL1        0.0414
     23 C         139.6644  137.6689  162.9075 C.2     1  UNL1        0.2428
     24 N         138.6951  137.7072  161.7634 N.am    1  UNL1       -0.3253
     25 O         140.9911  136.9882  162.7441 O.2     1  UNL1       -0.2704
     26 H         137.8244  138.1540  161.8706 H       1  UNL1        0.1453
     27 H         138.9297  137.2855  160.9052 H       1  UNL1        0.1453
@<TRIPOS>BOND
     1    10    11    1
     2    11    12   ar
     3    12    13   ar
     4    13    14   ar
     5    14     9    1
     6     9     1    1
     7     1     2    1
     8     2     3    1
     9     3     4    1
    10     5     4    1
    11     5     6    1
    12     6     7    1
    13     7    16    1
    14    16    17    1
    15    17    18   ar
    16    18    19   ar
    17    19    20   ar
    18    20    21   ar
    19    21    23    1
    20    23    24   am
    21    23    25    2
    22    21    22   ar
    23     7     8    1
    24    14    15   ar
    25    15    11   ar
    26     5     1    1
    27    22    17   ar
    28     8     2    1
    29    24    26    1
    30    24    27    1
@<TRIPOS>MOLECULE
*****
 27 30 0 0 0
SMALL
GASTEIGER

@<TRIPOS>ATOM
      1 N         139.8058  139.9053  163.8334 N.3     1  UNL1       -0.2709
      2 C         140.5676  139.3210  162.6808 C.3     1  UNL1        0.0614
      3 C         139.9558  137.9930  162.3462 C.3     1  UNL1        0.0175
      4 C         138.8158  137.7565  163.2919 C.3     1  UNL1        0.0175
      5 C         138.7230  138.9383  164.2110 C.3     1  UNL1        0.0614
      6 C         138.8660  140.2308  164.9779 C.3     1  UNL1        0.0595
      7 C         139.9898  141.0954  164.4885 C.3     1  UNL1        0.1686
      8 C         140.8406  140.6405  163.3399 C.3     1  UNL1        0.0595
      9 C         140.0787  141.2248  164.4924 C.3     1  UNL1        0.1056
     10 C         139.5369  145.8380  161.9814 C.3     1  UNL1        0.0381
     11 C         139.2346  144.6020  162.7757 C.ar    1  UNL1        0.0073
     12 C         137.9012  144.2289  163.3526 C.ar    1  UNL1        0.0024
     13 C         138.0552  142.9184  164.0660 C.ar    1  UNL1        0.0037
     14 C         139.4837  142.4815  163.9299 C.ar    1  UNL1        0.0231
     15 S         140.2126  143.5220  163.1324 S.2     1  UNL1       -0.0942
     16 O         140.2627  142.4150  165.1476 O.3     1  UNL1       -0.4791
     17 C         140.9985  142.4628  166.4539 C.ar    1  UNL1        0.1385
     18 C         142.4373  142.0440  166.5201 C.ar    1  UNL1        0.0369
     19 C         143.1730  142.0918  167.8264 C.ar    1  UNL1        0.0033
     20 C         142.4699  142.5585  169.0665 C.ar    1  UNL1        0.0047
     21 C         141.0311  142.9774  169.0003 C.ar    1  UNL1        0.0561
     22 C         140.2954  142.9295  167.6940 C.ar    1  UNL1        0.0414
     23 C         140.3281  143.4440  170.2404 C.2     1  UNL1        0.2428
     24 N         140.0448  142.4765  171.3511 N.am    1  UNL1       -0.3253
     25 O         139.9082  144.8783  170.3698 O.2     1  UNL1       -0.2704
     26 H         140.3203  141.5352  171.2662 H       1  UNL1        0.1453
     27 H         139.5833  142.7828  172.1650 H       1  UNL1        0.1453
@<TRIPOS>BOND
     1    10    11    1
     2    11    12   ar
     3    12    13   ar
     4    13    14   ar
     5    14     9    1
     6     9     1    1
     7     1     2    1
     8     2     3    1
     9     3     4    1
    10     5     4    1
    11     5     6    1
    12     6     7    1
    13     7    16    1
    14    16    17    1
    15    17    18   ar
    16    18    19   ar
    17    19    20   ar
    18    20    21   ar
    19    21    23    1
    20    23    24   am
    21    23    25    2
    22    21    22   ar
    23     7     8    1
    24    14    15   ar
    25    15    11   ar
    26     5     1    1
    27    22    17   ar
    28     8     2    1
    29    24    26    1
    30    24    27    1
@<TRIPOS>MOLECULE
*****
 27 30 0 0 0
SMALL
GASTEIGER

@<TRIPOS>ATOM
      1 N         143.3165  141.6561  164.5096 N.3     1  UNL1       -0.2709
      2 C         144.4887  142.5908  164.5574 C.3     1  UNL1        0.0614
      3 C         145.6642  141.8922  163.9409 C.3     1  UNL1        0.0175
      4 C         145.2185  140.5257  163.5120 C.3     1  UNL1        0.0175
      5 C         143.7675  140.3798  163.8634 C.3     1  UNL1        0.0614
      6 C         142.3360  140.5146  164.3234 C.3     1  UNL1        0.0595
      7 C         142.0316  141.8434  164.9493 C.3     1  UNL1        0.1686
      8 C         143.1080  142.8815  165.0663 C.3     1  UNL1        0.0595
      9 C         141.9358  141.9468  165.0185 C.3     1  UNL1        0.1056
     10 C         138.1616  142.7692  161.4185 C.3     1  UNL1        0.0381
     11 C         139.2011  143.0025  162.4744 C.ar    1  UNL1        0.0073
     12 C         139.5933  144.3323  163.0468 C.ar    1  UNL1        0.0024
     13 C         140.6655  144.0987  164.0695 C.ar    1  UNL1        0.0037
     14 C         140.9359  142.6245  164.1291 C.ar    1  UNL1        0.0231
     15 S         140.0308  141.9471  163.1433 S.2     1  UNL1       -0.0942
     16 O         140.6507  142.1340  165.4582 O.3     1  UNL1       -0.4791
     17 C         140.2377  141.6585  166.8196 C.ar    1  UNL1        0.1385
     18 C         139.6413  140.2925  166.9879 C.ar    1  UNL1        0.0369
     19 C         139.2282  139.8171  168.3492 C.ar    1  UNL1        0.0033
     20 C         139.4115  140.7076  169.5423 C.ar    1  UNL1        0.0047
     21 C         140.0080  142.0735  169.3739 C.ar    1  UNL1        0.0561
     22 C         140.4210  142.5490  168.0126 C.ar    1  UNL1        0.0414
     23 C         140.1913  142.9640  170.5670 C.2     1  UNL1        0.2428
     24 N         140.1349  144.4544  170.4063 N.am    1  UNL1       -0.3253
     25 O         140.4311  142.3642  171.9209 O.2     1  UNL1       -0.2704
     26 H         139.9775  144.8480  169.5177 H       1  UNL1        0.1453
     27 H         140.2552  145.0388  171.1893 H       1  UNL1        0.1453
@<TRIPOS>BOND
     1    10    11    1
     2    11    12   ar
     3    12    13   ar
     4    13    14   ar
     5    14     9    1
     6     9     1    1
     7     1     2    1
     8     2     3    1
     9     3     4    1
    10     5     4    1
    11     5     6    1
    12     6     7    1
    13     7    16    1
    14    16    17    1
    15    17    18   ar
    16    18    19   ar
    17    19    20   ar
    18    20    21   ar
    19    21    23    1
    20    23    24   am
    21    23    25    2
    22    21    22   ar
    23     7     8    1
    24    14    15   ar
    25    15    11   ar
    26     5     1    1
    27    22    17   ar
    28     8     2    1
    29    24    26    1
    30    24    27    1
@<TRIPOS>MOLECULE
*****
 27 30 0 0 0
SMALL
GASTEIGER

@<TRIPOS>ATOM
      1 N         142.4592  143.0521  164.6720 N.3     1  UNL1       -0.2709
      2 C         141.5079  144.0580  164.0948 C.3     1  UNL1        0.0614
      3 C         142.2917  145.2864  163.7391 C.3     1  UNL1        0.0175
      4 C         143.7275  145.0397  164.0964 C.3     1  UNL1        0.0175
      5 C         143.8310  143.6588  164.6730 C.3     1  UNL1        0.0614
      6 C         143.6370  142.2589  165.2038 C.3     1  UNL1        0.0595
      7 C         142.2147  141.7867  165.1394 C.3     1  UNL1        0.1686
      8 C         141.1502  142.6862  164.5849 C.3     1  UNL1        0.0595
      9 C         142.1015  141.6803  165.1621 C.3     1  UNL1        0.1056
     10 C         140.7102  138.0429  161.5963 C.3     1  UNL1        0.0381
     11 C         141.5101  138.8400  162.5835 C.ar    1  UNL1        0.0073
     12 C         142.9374  138.5881  162.9700 C.ar    1  UNL1        0.0024
     13 C         143.3327  139.6214  163.9829 C.ar    1  UNL1        0.0037
     14 C         142.1496  140.5119  164.2225 C.ar    1  UNL1        0.0231
     15 S         141.0233  140.0290  163.3577 S.2     1  UNL1       -0.0942
     16 O         141.8571  140.4148  165.6295 O.3     1  UNL1       -0.4791
     17 C         141.4789  140.2065  167.0661 C.ar    1  UNL1        0.1385
     18 C         140.1099  140.5898  167.5444 C.ar    1  UNL1        0.0369
     19 C         139.7318  140.3816  168.9809 C.ar    1  UNL1        0.0033
     20 C         140.7227  139.7901  169.9391 C.ar    1  UNL1        0.0047
     21 C         142.0917  139.4068  169.4608 C.ar    1  UNL1        0.0561
     22 C         142.4698  139.6150  168.0242 C.ar    1  UNL1        0.0414
     23 C         143.0826  138.8152  170.4190 C.2     1  UNL1        0.2428
     24 N         143.8061  139.6996  171.3908 N.am    1  UNL1       -0.3253
     25 O         143.3500  137.3393  170.4054 O.2     1  UNL1       -0.2704
     26 H         143.6306  140.6683  171.3998 H       1  UNL1        0.1453
     27 H         144.4564  139.3113  172.0198 H       1  UNL1        0.1453
@<TRIPOS>BOND
     1    10    11    1
     2    11    12   ar
     3    12    13   ar
     4    13    14   ar
     5    14     9    1
     6     9     1    1
     7     1     2    1
     8     2     3    1
     9     3     4    1
    10     5     4    1
    11     5     6    1
    12     6     7    1
    13     7    16    1
    14    16    17    1
    15    17    18   ar
    16    18    19   ar
    17    19    20   ar
    18    20    21   ar
    19    21    23    1
    20    23    24   am
    21    23    25    2
    22    21    22   ar
    23     7     8    1
    24    14    15   ar
    25    15    11   ar
    26     5     1    1
    27    22    17   ar
    28     8     2    1
    29    24    26    1
    30    24    27    1
@<TRIPOS>MOLECULE
*****
 27 30 0 0 0
SMALL
GASTEIGER

@<TRIPOS>ATOM
      1 N         139.8968  139.2733  164.0319 N.3     1  UNL1       -0.2709
      2 C         139.5504  137.8339  163.7907 C.3     1  UNL1        0.0614
      3 C         138.6192  137.7716  162.6165 C.3     1  UNL1        0.0175
      4 C         138.3901  139.1725  162.1318 C.3     1  UNL1        0.0175
      5 C         139.1797  140.1006  163.0066 C.3     1  UNL1        0.0614
      6 C         140.0582  140.7810  164.0285 C.3     1  UNL1        0.0595
      7 C         140.7090  139.8281  164.9869 C.3     1  UNL1        0.1686
      8 C         140.4551  138.3545  164.8680 C.3     1  UNL1        0.0595
      9 C         140.8015  139.7939  165.1091 C.3     1  UNL1        0.1056
     10 C         145.6187  141.4250  163.6897 C.3     1  UNL1        0.0381
     11 C         144.4984  140.5892  164.2339 C.ar    1  UNL1        0.0073
     12 C         144.6331  139.2296  164.8532 C.ar    1  UNL1        0.0024
     13 C         143.2647  138.7663  165.2564 C.ar    1  UNL1        0.0037
     14 C         142.2842  139.8394  164.8864 C.ar    1  UNL1        0.0231
     15 S         143.0467  140.9660  164.2544 S.2     1  UNL1       -0.0942
     16 O         141.6137  140.3488  166.0642 O.3     1  UNL1       -0.4791
     17 C         141.0300  140.9705  167.2982 C.ar    1  UNL1        0.1385
     18 C         141.1537  142.4482  167.5239 C.ar    1  UNL1        0.0369
     19 C         140.5700  143.0699  168.7578 C.ar    1  UNL1        0.0033
     20 C         139.8626  142.2139  169.7661 C.ar    1  UNL1        0.0047
     21 C         139.7389  140.7362  169.5405 C.ar    1  UNL1        0.0561
     22 C         140.3226  140.1144  168.3065 C.ar    1  UNL1        0.0414
     23 C         139.0314  139.8802  170.5488 C.2     1  UNL1        0.2428
     24 N         139.8188  139.1431  171.5913 N.am    1  UNL1       -0.3253
     25 O         137.5364  139.7611  170.5146 O.2     1  UNL1       -0.2704
     26 H         140.7999  139.2212  171.6137 H       1  UNL1        0.1453
     27 H         139.3545  138.5813  172.2531 H       1  UNL1        0.1453
@<TRIPOS>BOND
     1    10    11    1
     2    11    12   ar
     3    12    13   ar
     4    13    14   ar
     5    14     9    1
     6     9     1    1
     7     1     2    1
     8     2     3    1
     9     3     4    1
    10     5     4    1
    11     5     6    1
    12     6     7    1
    13     7    16    1
    14    16    17    1
    15    17    18   ar
    16    18    19   ar
    17    19    20   ar
    18    20    21   ar
    19    21    23    1
    20    23    24   am
    21    23    25    2
    22    21    22   ar
    23     7     8    1
    24    14    15   ar
    25    15    11   ar
    26     5     1    1
    27    22    17   ar
    28     8     2    1
    29    24    26    1
    30    24    27    1
@<TRIPOS>MOLECULE
*****
 27 30 0 0 0
SMALL
GASTEIGER

@<TRIPOS>ATOM
      1 N         139.2655  142.9788  164.0839 N.3     1  UNL1       -0.2709
      2 C         137.8594  143.4304  163.8211 C.3     1  UNL1        0.0614
      3 C         137.9103  144.5459  162.8196 C.3     1  UNL1        0.0175
      4 C         139.3478  144.7838  162.4635 C.3     1  UNL1        0.0175
      5 C         140.1854  143.8153  163.2448 C.3     1  UNL1        0.0614
      6 C         140.7629  142.7468  164.1415 C.3     1  UNL1        0.0595
      7 C         139.7247  141.9930  164.9186 C.3     1  UNL1        0.1686
      8 C         138.2730  142.3347  164.7584 C.3     1  UNL1        0.0595
      9 C         139.6790  141.8832  165.0212 C.3     1  UNL1        0.1056
     10 C         141.2083  137.1464  163.2593 C.3     1  UNL1        0.0381
     11 C         140.3565  138.2777  163.7535 C.ar    1  UNL1        0.0073
     12 C         138.8719  138.2368  163.9640 C.ar    1  UNL1        0.0024
     13 C         138.4374  139.5824  164.4645 C.ar    1  UNL1        0.0037
     14 C         139.6535  140.4550  164.5633 C.ar    1  UNL1        0.0231
     15 S         140.8395  139.6486  164.1239 S.2     1  UNL1       -0.0942
     16 O         140.1383  140.8973  165.8560 O.3     1  UNL1       -0.4791
     17 C         139.9908  141.0820  167.3372 C.ar    1  UNL1        0.1385
     18 C         139.3104  140.0287  168.1604 C.ar    1  UNL1        0.0369
     19 C         139.1629  140.2134  169.6415 C.ar    1  UNL1        0.0033
     20 C         139.6958  141.4515  170.2997 C.ar    1  UNL1        0.0047
     21 C         140.3761  142.5049  169.4766 C.ar    1  UNL1        0.0561
     22 C         140.5236  142.3201  167.9953 C.ar    1  UNL1        0.0414
     23 C         140.9089  143.7430  170.1347 C.2     1  UNL1        0.2428
     24 N         140.0204  144.9379  170.3155 N.am    1  UNL1       -0.3253
     25 O         142.3304  143.7862  170.6121 O.2     1  UNL1       -0.2704
     26 H         139.0875  144.9096  170.0023 H       1  UNL1        0.1453
     27 H         140.3701  145.7505  170.7475 H       1  UNL1        0.1453
@<TRIPOS>BOND
     1    10    11    1
     2    11    12   ar
     3    12    13   ar
     4    13    14   ar
     5    14     9    1
     6     9     1    1
     7     1     2    1
     8     2     3    1
     9     3     4    1
    10     5     4    1
    11     5     6    1
    12     6     7    1
    13     7    16    1
    14    16    17    1
    15    17    18   ar
    16    18    19   ar
    17    19    20   ar
    18    20    21   ar
    19    21    23    1
    20    23    24   am
    21    23    25    2
    22    21    22   ar
    23     7     8    1
    24    14    15   ar
    25    15    11   ar
    26     5     1    1
    27    22    17   ar
    28     8     2    1
    29    24    26    1
    30    24    27    1
@<TRIPOS>MOLECULE
*****
 27 30 0 0 0
SMALL
GASTEIGER

@<TRIPOS>ATOM
      1 N         141.2170  143.4339  164.7591 N.3     1  UNL1       -0.2709
      2 C         142.4663  143.7011  163.9731 C.3     1  UNL1        0.0614
      3 C         142.2289  144.9143  163.1235 C.3     1  UNL1        0.0175
      4 C         140.8328  145.3968  163.3844 C.3     1  UNL1        0.0175
      5 C         140.2074  144.4819  164.3953 C.3     1  UNL1        0.0614
      6 C         139.8443  143.4182  165.4031 C.3     1  UNL1        0.0595
      7 C         140.9514  142.4409  165.6662 C.3     1  UNL1        0.1686
      8 C         142.2624  142.5824  164.9512 C.3     1  UNL1        0.0595
      9 C         141.0131  142.3151  165.7372 C.3     1  UNL1        0.1056
     10 C         144.0185  142.3076  170.0787 C.3     1  UNL1        0.0381
     11 C         142.8480  142.4662  169.1542 C.ar    1  UNL1        0.0073
     12 C         141.4805  142.9487  169.5380 C.ar    1  UNL1        0.0024
     13 C         140.6268  142.9509  168.3047 C.ar    1  UNL1        0.0037
     14 C         141.4665  142.4697  167.1587 C.ar    1  UNL1        0.0231
     15 S         142.8393  142.1701  167.6838 S.2     1  UNL1       -0.0942
     16 O         140.7475  141.3221  166.6444 O.3     1  UNL1       -0.4791
     17 C         139.9462  140.1171  166.2493 C.ar    1  UNL1        0.1385
     18 C         138.8942  139.5799  167.1737 C.ar    1  UNL1        0.0369
     19 C         138.0929  138.3750  166.7786 C.ar    1  UNL1        0.0033
     20 C         138.3436  137.7073  165.4590 C.ar    1  UNL1        0.0047
     21 C         139.3956  138.2446  164.5346 C.ar    1  UNL1        0.0561
     22 C         140.1969  139.4495  164.9297 C.ar    1  UNL1        0.0414
     23 C         139.6463  137.5769  163.2150 C.2     1  UNL1        0.2428
     24 N         138.5895  137.5986  162.1507 N.am    1  UNL1       -0.3253
     25 O         140.9539  136.8875  162.9596 O.2     1  UNL1       -0.2704
     26 H         137.7314  138.0510  162.3182 H       1  UNL1        0.1453
     27 H         138.7541  137.1604  161.2846 H       1  UNL1        0.1453
@<TRIPOS>BOND
     1    10    11    1
     2    11    12   ar
     3    12    13   ar
     4    13    14   ar
     5    14     9    1
     6     9     1    1
     7     1     2    1
     8     2     3    1
     9     3     4    1
    10     5     4    1
    11     5     6    1
    12     6     7    1
    13     7    16    1
    14    16    17    1
    15    17    18   ar
    16    18    19   ar
    17    19    20   ar
    18    20    21   ar
    19    21    23    1
    20    23    24   am
    21    23    25    2
    22    21    22   ar
    23     7     8    1
    24    14    15   ar
    25    15    11   ar
    26     5     1    1
    27    22    17   ar
    28     8     2    1
    29    24    26    1
    30    24    27    1
@<TRIPOS>MOLECULE
*****
 27 30 0 0 0
SMALL
GASTEIGER

@<TRIPOS>ATOM
      1 N         140.6042  139.0652  164.6819 N.3     1  UNL1       -0.2709
      2 C         140.4999  137.6556  164.1798 C.3     1  UNL1        0.0614
      3 C         139.2015  137.5217  163.4407 C.3     1  UNL1        0.0175
      4 C         138.5034  138.8485  163.4860 C.3     1  UNL1        0.0175
      5 C         139.3702  139.8025  164.2532 C.3     1  UNL1        0.0614
      6 C         140.4289  140.5257  165.0502 C.3     1  UNL1        0.0595
      7 C         141.6028  139.6625  165.4069 C.3     1  UNL1        0.1686
      8 C         141.6382  138.2275  164.9717 C.3     1  UNL1        0.0595
      9 C         141.7425  139.6371  165.4738 C.3     1  UNL1        0.1056
     10 C         144.9627  142.7308  162.6560 C.3     1  UNL1        0.0381
     11 C         144.4359  141.5885  163.4730 C.ar    1  UNL1        0.0073
     12 C         145.2095  140.3736  163.8918 C.ar    1  UNL1        0.0024
     13 C         144.2948  139.4947  164.6923 C.ar    1  UNL1        0.0037
     14 C         142.9558  140.1665  164.7682 C.ar    1  UNL1        0.0231
     15 S         143.0430  141.4605  164.0147 S.2     1  UNL1       -0.0942
     16 O         142.7411  140.2345  166.1988 O.3     1  UNL1       -0.4791
     17 C         142.6136  140.3983  167.6844 C.ar    1  UNL1        0.1385
     18 C         142.6008  139.1905  168.5738 C.ar    1  UNL1        0.0369
     19 C         142.4733  139.3543  170.0592 C.ar    1  UNL1        0.0033
     20 C         142.3586  140.7259  170.6555 C.ar    1  UNL1        0.0047
     21 C         142.3715  141.9337  169.7661 C.ar    1  UNL1        0.0561
     22 C         142.4990  141.7699  168.2805 C.ar    1  UNL1        0.0414
     23 C         142.2568  143.3054  170.3623 C.2     1  UNL1        0.2428
     24 N         143.3971  143.8782  171.1509 N.am    1  UNL1       -0.3253
     25 O         141.0018  144.1043  170.1700 O.2     1  UNL1       -0.2704
     26 H         144.2207  143.3538  171.2771 H       1  UNL1        0.1453
     27 H         143.3218  144.7784  171.5422 H       1  UNL1        0.1453
@<TRIPOS>BOND
     1    10    11    1
     2    11    12   ar
     3    12    13   ar
     4    13    14   ar
     5    14     9    1
     6     9     1    1
     7     1     2    1
     8     2     3    1
     9     3     4    1
    10     5     4    1
    11     5     6    1
    12     6     7    1
    13     7    16    1
    14    16    17    1
    15    17    18   ar
    16    18    19   ar
    17    19    20   ar
    18    20    21   ar
    19    21    23    1
    20    23    24   am
    21    23    25    2
    22    21    22   ar
    23     7     8    1
    24    14    15   ar
    25    15    11   ar
    26     5     1    1
    27    22    17   ar
    28     8     2    1
    29    24    26    1
    30    24    27    1
@<TRIPOS>MOLECULE
*****
 27 30 0 0 0
SMALL
GASTEIGER

@<TRIPOS>ATOM
      1 N         143.5374  141.1241  164.3032 N.3     1  UNL1       -0.2709
      2 C         144.9254  140.6769  163.9516 C.3     1  UNL1        0.0614
      3 C         145.6004  141.7960  163.2154 C.3     1  UNL1        0.0175
      4 C         144.6296  142.9348  163.1121 C.3     1  UNL1        0.0175
      5 C         143.3546  142.5196  163.7844 C.3     1  UNL1        0.0614
      6 C         142.2188  141.8428  164.5131 C.3     1  UNL1        0.0595
      7 C         142.5470  140.4531  164.9728 C.3     1  UNL1        0.1686
      8 C         143.9002  139.8702  164.6920 C.3     1  UNL1        0.0595
      9 C         142.5123  140.3174  165.0437 C.3     1  UNL1        0.1056
     10 C         138.5980  138.1119  162.2698 C.3     1  UNL1        0.0381
     11 C         139.8749  138.2998  163.0340 C.ar    1  UNL1        0.0073
     12 C         140.8939  137.2376  163.3229 C.ar    1  UNL1        0.0024
     13 C         142.0058  137.8641  164.1109 C.ar    1  UNL1        0.0037
     14 C         141.6741  139.3135  164.3090 C.ar    1  UNL1        0.0231
     15 S         140.3572  139.5827  163.6434 S.2     1  UNL1       -0.0942
     16 O         141.5217  139.6464  165.7133 O.3     1  UNL1       -0.4791
     17 C         141.4934  139.6644  167.2129 C.ar    1  UNL1        0.1385
     18 C         142.6859  139.1932  167.9913 C.ar    1  UNL1        0.0369
     19 C         142.6575  139.2112  169.4908 C.ar    1  UNL1        0.0033
     20 C         141.4367  139.7004  170.2121 C.ar    1  UNL1        0.0047
     21 C         140.2442  140.1716  169.4337 C.ar    1  UNL1        0.0561
     22 C         140.2725  140.1536  167.9341 C.ar    1  UNL1        0.0414
     23 C         139.0233  140.6608  170.1550 C.2     1  UNL1        0.2428
     24 N         137.8586  139.7398  170.3680 N.am    1  UNL1       -0.3253
     25 O         138.9671  142.0710  170.6632 O.2     1  UNL1       -0.2704
     26 H         137.8955  138.8143  170.0345 H       1  UNL1        0.1453
     27 H         137.0574  140.0609  170.8414 H       1  UNL1        0.1453
@<TRIPOS>BOND
     1    10    11    1
     2    11    12   ar
     3    12    13   ar
     4    13    14   ar
     5    14     9    1
     6     9     1    1
     7     1     2    1
     8     2     3    1
     9     3     4    1
    10     5     4    1
    11     5     6    1
    12     6     7    1
    13     7    16    1
    14    16    17    1
    15    17    18   ar
    16    18    19   ar
    17    19    20   ar
    18    20    21   ar
    19    21    23    1
    20    23    24   am
    21    23    25    2
    22    21    22   ar
    23     7     8    1
    24    14    15   ar
    25    15    11   ar
    26     5     1    1
    27    22    17   ar
    28     8     2    1
    29    24    26    1
    30    24    27    1
