@<TRIPOS>MOLECULE
*****
 36 40 0 0 0
SMALL
GASTEIGER

@<TRIPOS>ATOM
      1 C         137.9896  139.8091  165.0196 C.3     1  UNL1        0.0768
      2 N         138.0498  141.0859  164.2347 N.3     1  UNL1       -0.2724
      3 C         137.4950  141.3014  162.8578 C.3     1  UNL1        0.0721
      4 C         137.7777  142.7201  162.4610 C.3     1  UNL1        0.0187
      5 C         138.5072  143.3814  163.5926 C.3     1  UNL1        0.0178
      6 C         138.6753  142.3714  164.6888 C.3     1  UNL1        0.0721
      7 C         138.9846  144.8030  163.6227 C.3     1  UNL1        0.0077
      8 C         140.2662  145.1783  162.9396 C.3     1  UNL1        0.0459
      9 C         141.5306  144.4364  163.2571 C.ar    1  UNL1        0.0603
     10 C         142.6346  145.1221  164.0060 C.ar    1  UNL1        0.0145
     11 C         143.8990  144.3803  164.3236 C.ar    1  UNL1       -0.0003
     12 C         144.0595  142.9526  163.8922 C.ar    1  UNL1        0.0092
     13 C         142.9555  142.2668  163.1433 C.ar    1  UNL1        0.1240
     14 N         141.6910  143.0088  162.8257 N.ar    1  UNL1       -0.2356
     15 N         143.1159  140.8392  162.7119 N.pl3   1  UNL1       -0.3184
     16 C         144.3803  140.0973  163.0294 C.3     1  UNL1        0.0885
     17 C         145.4843  140.7831  163.7784 C.3     1  UNL1        0.0260
     18 C         145.3239  142.2107  164.2098 C.3     1  UNL1        0.0309
     19 H         142.3913  140.3891  162.2203 H       1  UNL1        0.1482
     20 C         139.2052  138.9368  165.1273 C.3     1  UNL1        0.0439
     21 C         141.1831  140.3279  168.2741 C.ar    1  UNL1        0.0663
     22 C         142.6013  140.1336  167.8262 C.ar    1  UNL1        0.0176
     23 C         142.8876  139.5403  166.4786 C.ar    1  UNL1        0.0012
     24 C         141.7555  139.1413  165.5789 C.ar    1  UNL1       -0.0041
     25 C         140.3372  139.3357  166.0269 C.ar    1  UNL1       -0.0193
     26 C         140.0511  139.9290  167.3745 C.ar    1  UNL1        0.0134
     27 C         140.3740  143.4327  168.8705 C.3     1  UNL1        0.0742
     28 C         140.5249  142.3483  169.8958 C.ar    1  UNL1        0.1476
     29 N         140.3305  142.5007  171.3753 N.ar    1  UNL1       -0.1329
     30 N         140.5822  141.1677  172.0156 N.ar    1  UNL1       -0.1255
     31 C         140.9322  140.1916  170.9318 C.ar    1  UNL1        0.2066
     32 N         140.8968  140.9213  169.6217 N.ar    1  UNL1       -0.2748
     33 C         139.2887  137.6656  164.3353 C.3     1  UNL1        0.0474
     34 C         139.2616  137.7128  162.8363 C.2     1  UNL1        0.0507
     35 O         140.5317  137.5391  162.0574 O.co2   1  UNL1       -0.5492
     36 O         137.9645  137.9337  162.1161 O.co2   1  UNL1       -0.5492
@<TRIPOS>UNITY_ATOM_ATTR
35 1
charge -1
@<TRIPOS>BOND
     1    27    28    1
     2    28    29   ar
     3    29    30   ar
     4    30    31   ar
     5    31    32   ar
     6    32    21    1
     7    21    22   ar
     8    22    23   ar
     9    23    24   ar
    10    24    25   ar
    11    25    20    1
    12    20    33    1
    13    33    34    1
    14    34    35   ar
    15    34    36   ar
    16    20     1    1
    17     1     2    1
    18     2     3    1
    19     3     4    1
    20     4     5    1
    21     5     7    1
    22     7     8    1
    23     8     9    1
    24     9    10   ar
    25    10    11   ar
    26    11    12   ar
    27    12    13   ar
    28    13    14   ar
    29    13    15    1
    30    15    16    1
    31    16    17    1
    32    17    18    1
    33     5     6    1
    34    25    26   ar
    35    32    28   ar
    36    26    21   ar
    37     6     2    1
    38    14     9   ar
    39    18    12    1
    40    15    19    1
@<TRIPOS>MOLECULE
*****
 36 40 0 0 0
SMALL
GASTEIGER

@<TRIPOS>ATOM
      1 C         138.1602  142.6089  164.7190 C.3     1  UNL1        0.0768
      2 N         138.3568  141.1938  164.2620 N.3     1  UNL1       -0.2724
      3 C         138.0408  140.6559  162.8978 C.3     1  UNL1        0.0721
      4 C         138.3926  139.1978  162.8816 C.3     1  UNL1        0.0187
      5 C         138.9260  138.8346  164.2356 C.3     1  UNL1        0.0178
      6 C         138.9039  140.0681  165.0887 C.3     1  UNL1        0.0721
      7 C         139.3986  137.4762  164.6617 C.3     1  UNL1        0.0077
      8 C         140.7718  137.0068  164.2823 C.3     1  UNL1        0.0459
      9 C         141.9119  137.9806  164.2388 C.ar    1  UNL1        0.0603
     10 C         142.8292  138.1146  165.4181 C.ar    1  UNL1        0.0145
     11 C         143.9693  139.0883  165.3746 C.ar    1  UNL1       -0.0003
     12 C         144.1922  139.9281  164.1518 C.ar    1  UNL1        0.0092
     13 C         143.2750  139.7941  162.9725 C.ar    1  UNL1        0.1240
     14 N         142.1348  138.8203  163.0160 N.ar    1  UNL1       -0.2356
     15 N         143.4979  140.6338  161.7498 N.pl3   1  UNL1       -0.3184
     16 C         144.6380  141.6075  161.7063 C.3     1  UNL1        0.0885
     17 C         145.5552  141.7415  162.8856 C.3     1  UNL1        0.0260
     18 C         145.3324  140.9018  164.1083 C.3     1  UNL1        0.0309
     19 H         142.8958  140.5459  160.9758 H       1  UNL1        0.1482
     20 C         139.3473  143.5031  164.9225 C.3     1  UNL1        0.0439
     21 C         141.2965  142.3392  168.1775 C.ar    1  UNL1        0.0663
     22 C         142.6928  142.2173  167.6434 C.ar    1  UNL1        0.0176
     23 C         142.9740  142.5240  166.2023 C.ar    1  UNL1        0.0012
     24 C         141.8588  142.9526  165.2953 C.ar    1  UNL1       -0.0041
     25 C         140.4624  143.0745  165.8295 C.ar    1  UNL1       -0.0193
     26 C         140.1813  142.7678  167.2705 C.ar    1  UNL1        0.0134
     27 C         141.8517  139.4943  169.6770 C.3     1  UNL1        0.0742
     28 C         141.2705  140.7249  170.3079 C.ar    1  UNL1        0.1476
     29 N         140.8424  140.8638  171.7388 N.ar    1  UNL1       -0.1329
     30 N         140.3226  142.2573  171.9339 N.ar    1  UNL1       -0.1255
     31 C         140.4295  142.9795  170.6236 C.ar    1  UNL1        0.2066
     32 N         141.0153  142.0325  169.6186 N.ar    1  UNL1       -0.2748
     33 C         139.4191  144.8259  164.2188 C.3     1  UNL1        0.0474
     34 C         139.7105  144.8784  162.7483 C.2     1  UNL1        0.0507
     35 O         141.0534  145.3407  162.2659 O.co2   1  UNL1       -0.5492
     36 O         138.6590  144.4686  161.7602 O.co2   1  UNL1       -0.5492
@<TRIPOS>UNITY_ATOM_ATTR
35 1
charge -1
@<TRIPOS>BOND
     1    27    28    1
     2    28    29   ar
     3    29    30   ar
     4    30    31   ar
     5    31    32   ar
     6    32    21    1
     7    21    22   ar
     8    22    23   ar
     9    23    24   ar
    10    24    25   ar
    11    25    20    1
    12    20    33    1
    13    33    34    1
    14    34    35   ar
    15    34    36   ar
    16    20     1    1
    17     1     2    1
    18     2     3    1
    19     3     4    1
    20     4     5    1
    21     5     7    1
    22     7     8    1
    23     8     9    1
    24     9    10   ar
    25    10    11   ar
    26    11    12   ar
    27    12    13   ar
    28    13    14   ar
    29    13    15    1
    30    15    16    1
    31    16    17    1
    32    17    18    1
    33     5     6    1
    34    25    26   ar
    35    32    28   ar
    36    26    21   ar
    37     6     2    1
    38    14     9   ar
    39    18    12    1
    40    15    19    1
@<TRIPOS>MOLECULE
*****
 36 40 0 0 0
SMALL
GASTEIGER

@<TRIPOS>ATOM
      1 C         142.6711  138.3515  164.7201 C.3     1  UNL1        0.0768
      2 N         141.3090  138.1721  164.1182 N.3     1  UNL1       -0.2724
      3 C         140.0911  137.6610  164.8293 C.3     1  UNL1        0.0721
      4 C         138.9549  137.6454  163.8501 C.3     1  UNL1        0.0187
      5 C         139.4706  138.1468  162.5338 C.3     1  UNL1        0.0178
      6 C         140.9255  138.4723  162.6995 C.3     1  UNL1        0.0721
      7 C         138.6717  138.2963  161.2731 C.3     1  UNL1        0.0077
      8 C         137.6154  139.3569  161.1760 C.3     1  UNL1        0.0459
      9 C         137.9139  140.7562  161.6268 C.ar    1  UNL1        0.0603
     10 C         137.4421  141.2280  162.9702 C.ar    1  UNL1        0.0145
     11 C         137.7405  142.6272  163.4209 C.ar    1  UNL1       -0.0003
     12 C         138.5107  143.5546  162.5282 C.ar    1  UNL1        0.0092
     13 C         138.9825  143.0827  161.1848 C.ar    1  UNL1        0.1240
     14 N         138.6840  141.6835  160.7341 N.ar    1  UNL1       -0.2356
     15 N         139.7526  144.0101  160.2921 N.pl3   1  UNL1       -0.3184
     16 C         140.0510  145.4092  160.7429 C.3     1  UNL1        0.0885
     17 C         139.5793  145.8811  162.0863 C.3     1  UNL1        0.0260
     18 C         138.8091  144.9538  162.9790 C.3     1  UNL1        0.0309
     19 H         140.0622  143.7004  159.4104 H       1  UNL1        0.1482
     20 C         143.1989  139.7306  164.9837 C.3     1  UNL1        0.0439
     21 C         141.3950  141.8043  167.8464 C.ar    1  UNL1        0.0663
     22 C         140.6004  142.7810  167.0312 C.ar    1  UNL1        0.0176
     23 C         140.6719  142.7409  165.5334 C.ar    1  UNL1        0.0012
     24 C         141.5381  141.7241  164.8510 C.ar    1  UNL1       -0.0041
     25 C         142.3328  140.7474  165.6662 C.ar    1  UNL1       -0.0193
     26 C         142.2612  140.7875  167.1639 C.ar    1  UNL1        0.0134
     27 C         139.0988  140.4048  169.6953 C.3     1  UNL1        0.0742
     28 C         140.2681  141.2012  170.1940 C.ar    1  UNL1        0.1476
     29 N         140.5872  141.4941  171.6301 N.ar    1  UNL1       -0.1329
     30 N         141.8398  142.3184  171.6678 N.ar    1  UNL1       -0.1255
     31 C         142.2949  142.5349  170.2550 C.ar    1  UNL1        0.2066
     32 N         141.3235  141.8445  169.3441 N.ar    1  UNL1       -0.2748
     33 C         144.5930  140.0929  164.5648 C.3     1  UNL1        0.0474
     34 C         144.8394  140.6797  163.2065 C.2     1  UNL1        0.0507
     35 O         143.9597  140.2970  162.0534 O.co2   1  UNL1       -0.5492
     36 O         145.9653  141.6493  163.0014 O.co2   1  UNL1       -0.5492
@<TRIPOS>UNITY_ATOM_ATTR
35 1
charge -1
@<TRIPOS>BOND
     1    27    28    1
     2    28    29   ar
     3    29    30   ar
     4    30    31   ar
     5    31    32   ar
     6    32    21    1
     7    21    22   ar
     8    22    23   ar
     9    23    24   ar
    10    24    25   ar
    11    25    20    1
    12    20    33    1
    13    33    34    1
    14    34    35   ar
    15    34    36   ar
    16    20     1    1
    17     1     2    1
    18     2     3    1
    19     3     4    1
    20     4     5    1
    21     5     7    1
    22     7     8    1
    23     8     9    1
    24     9    10   ar
    25    10    11   ar
    26    11    12   ar
    27    12    13   ar
    28    13    14   ar
    29    13    15    1
    30    15    16    1
    31    16    17    1
    32    17    18    1
    33     5     6    1
    34    25    26   ar
    35    32    28   ar
    36    26    21   ar
    37     6     2    1
    38    14     9   ar
    39    18    12    1
    40    15    19    1
@<TRIPOS>MOLECULE
*****
 36 40 0 0 0
SMALL
GASTEIGER

@<TRIPOS>ATOM
      1 C         138.7095  143.8295  163.5693 C.3     1  UNL1        0.0768
      2 N         138.4569  142.5990  162.7495 N.3     1  UNL1       -0.2724
      3 C         138.3355  142.5445  161.2553 C.3     1  UNL1        0.0721
      4 C         138.0849  141.1187  160.8623 C.3     1  UNL1        0.0187
      5 C         138.0514  140.2920  162.1135 C.3     1  UNL1        0.0178
      6 C         138.2813  141.2069  163.2798 C.3     1  UNL1        0.0721
      7 C         137.8274  138.8107  162.1857 C.3     1  UNL1        0.0077
      8 C         138.9901  137.8699  162.0720 C.3     1  UNL1        0.0459
      9 C         140.2722  138.1719  162.7898 C.ar    1  UNL1        0.0603
     10 C         140.5390  137.5657  164.1356 C.ar    1  UNL1        0.0145
     11 C         141.8210  137.8676  164.8534 C.ar    1  UNL1       -0.0003
     12 C         142.8363  138.7759  164.2253 C.ar    1  UNL1        0.0092
     13 C         142.5695  139.3821  162.8795 C.ar    1  UNL1        0.1240
     14 N         141.2874  139.0801  162.1617 N.ar    1  UNL1       -0.2356
     15 N         143.5846  140.2904  162.2515 N.pl3   1  UNL1       -0.3184
     16 C         144.8666  140.5923  162.9692 C.3     1  UNL1        0.0885
     17 C         145.1335  139.9861  164.3151 C.3     1  UNL1        0.0260
     18 C         144.1183  139.0778  164.9431 C.3     1  UNL1        0.0309
     19 H         143.4095  140.6883  161.3682 H       1  UNL1        0.1482
     20 C         140.1162  144.2586  163.8639 C.3     1  UNL1        0.0439
     21 C         141.0258  142.4970  167.3018 C.ar    1  UNL1        0.0663
     22 C         142.4753  142.1797  167.0830 C.ar    1  UNL1        0.0176
     23 C         143.1386  142.5554  165.7911 C.ar    1  UNL1        0.0012
     24 C         142.3523  143.2484  164.7181 C.ar    1  UNL1       -0.0041
     25 C         140.9026  143.5657  164.9369 C.ar    1  UNL1       -0.0193
     26 C         140.2394  143.1900  166.2288 C.ar    1  UNL1        0.0134
     27 C         139.3942  139.7321  167.8874 C.3     1  UNL1        0.0742
     28 C         139.6126  140.8505  168.8628 C.ar    1  UNL1        0.1476
     29 N         139.1193  140.8944  170.2787 N.ar    1  UNL1       -0.1329
     30 N         139.5644  142.1923  170.8847 N.ar    1  UNL1       -0.1255
     31 C         140.3327  142.9506  169.8432 C.ar    1  UNL1        0.2066
     32 N         140.3625  142.1214  168.5937 N.ar    1  UNL1       -0.2748
     33 C         140.7366  145.3809  163.0855 C.3     1  UNL1        0.0474
     34 C         140.3454  145.6076  161.6553 C.2     1  UNL1        0.0507
     35 O         139.1774  146.4901  161.3281 O.co2   1  UNL1       -0.5492
     36 O         141.1220  144.9518  160.5522 O.co2   1  UNL1       -0.5492
@<TRIPOS>UNITY_ATOM_ATTR
35 1
charge -1
@<TRIPOS>BOND
     1    27    28    1
     2    28    29   ar
     3    29    30   ar
     4    30    31   ar
     5    31    32   ar
     6    32    21    1
     7    21    22   ar
     8    22    23   ar
     9    23    24   ar
    10    24    25   ar
    11    25    20    1
    12    20    33    1
    13    33    34    1
    14    34    35   ar
    15    34    36   ar
    16    20     1    1
    17     1     2    1
    18     2     3    1
    19     3     4    1
    20     4     5    1
    21     5     7    1
    22     7     8    1
    23     8     9    1
    24     9    10   ar
    25    10    11   ar
    26    11    12   ar
    27    12    13   ar
    28    13    14   ar
    29    13    15    1
    30    15    16    1
    31    16    17    1
    32    17    18    1
    33     5     6    1
    34    25    26   ar
    35    32    28   ar
    36    26    21   ar
    37     6     2    1
    38    14     9   ar
    39    18    12    1
    40    15    19    1
@<TRIPOS>MOLECULE
*****
 36 40 0 0 0
SMALL
GASTEIGER

@<TRIPOS>ATOM
      1 C         140.7454  144.3856  164.6954 C.3     1  UNL1        0.0768
      2 N         141.9825  143.8470  164.0400 N.3     1  UNL1       -0.2724
      3 C         142.3158  143.9336  162.5801 C.3     1  UNL1        0.0721
      4 C         143.6428  143.2674  162.3672 C.3     1  UNL1        0.0187
      5 C         144.1296  142.7691  163.6956 C.3     1  UNL1        0.0178
      6 C         143.1035  143.1273  164.7295 C.3     1  UNL1        0.0721
      7 C         145.4165  142.0405  163.9462 C.3     1  UNL1        0.0077
      8 C         145.4309  140.5417  164.0033 C.3     1  UNL1        0.0459
      9 C         144.1392  139.7804  164.0499 C.ar    1  UNL1        0.0603
     10 C         143.7175  139.0957  165.3161 C.ar    1  UNL1        0.0145
     11 C         142.4259  138.3345  165.3628 C.ar    1  UNL1       -0.0003
     12 C         141.5559  138.2579  164.1432 C.ar    1  UNL1        0.0092
     13 C         141.9777  138.9427  162.8770 C.ar    1  UNL1        0.1240
     14 N         143.2694  139.7039  162.8304 N.ar    1  UNL1       -0.2356
     15 N         141.1078  138.8661  161.6574 N.pl3   1  UNL1       -0.3184
     16 C         139.8162  138.1049  161.7040 C.3     1  UNL1        0.0885
     17 C         139.3944  137.4202  162.9702 C.3     1  UNL1        0.0260
     18 C         140.2643  137.4967  164.1898 C.3     1  UNL1        0.0309
     19 H         141.3846  139.3155  160.8263 H       1  UNL1        0.1482
     20 C         139.5176  143.5300  164.7975 C.3     1  UNL1        0.0439
     21 C         139.9951  141.3014  168.0464 C.ar    1  UNL1        0.0663
     22 C         139.4719  139.9811  167.5639 C.ar    1  UNL1        0.0176
     23 C         138.9640  139.8436  166.1593 C.ar    1  UNL1        0.0012
     24 C         138.9792  141.0266  165.2371 C.ar    1  UNL1       -0.0041
     25 C         139.5024  142.3470  165.7197 C.ar    1  UNL1       -0.0193
     26 C         140.0103  142.4844  167.1243 C.ar    1  UNL1        0.0134
     27 C         142.4887  139.6520  169.3545 C.3     1  UNL1        0.0742
     28 C         141.6492  140.6807  170.0523 C.ar    1  UNL1        0.1476
     29 N         141.8085  141.1320  171.4740 N.ar    1  UNL1       -0.1329
     30 N         140.7608  142.1690  171.7514 N.ar    1  UNL1       -0.1255
     31 C         139.9540  142.3586  170.5011 C.ar    1  UNL1        0.2066
     32 N         140.5030  141.4389  169.4511 N.ar    1  UNL1       -0.2748
     33 C         138.3049  143.8574  163.9775 C.3     1  UNL1        0.0474
     34 C         138.2398  143.4442  162.5369 C.2     1  UNL1        0.0507
     35 O         137.4731  142.2167  162.1427 O.co2   1  UNL1       -0.5492
     36 O         138.9414  144.2585  161.4907 O.co2   1  UNL1       -0.5492
@<TRIPOS>UNITY_ATOM_ATTR
35 1
charge -1
@<TRIPOS>BOND
     1    27    28    1
     2    28    29   ar
     3    29    30   ar
     4    30    31   ar
     5    31    32   ar
     6    32    21    1
     7    21    22   ar
     8    22    23   ar
     9    23    24   ar
    10    24    25   ar
    11    25    20    1
    12    20    33    1
    13    33    34    1
    14    34    35   ar
    15    34    36   ar
    16    20     1    1
    17     1     2    1
    18     2     3    1
    19     3     4    1
    20     4     5    1
    21     5     7    1
    22     7     8    1
    23     8     9    1
    24     9    10   ar
    25    10    11   ar
    26    11    12   ar
    27    12    13   ar
    28    13    14   ar
    29    13    15    1
    30    15    16    1
    31    16    17    1
    32    17    18    1
    33     5     6    1
    34    25    26   ar
    35    32    28   ar
    36    26    21   ar
    37     6     2    1
    38    14     9   ar
    39    18    12    1
    40    15    19    1
@<TRIPOS>MOLECULE
*****
 36 40 0 0 0
SMALL
GASTEIGER

@<TRIPOS>ATOM
      1 C         142.1204  141.3237  168.3085 C.3     1  UNL1        0.0768
      2 N         142.8531  141.1491  167.0114 N.3     1  UNL1       -0.2724
      3 C         143.3354  142.2515  166.1158 C.3     1  UNL1        0.0721
      4 C         144.0125  141.6250  164.9330 C.3     1  UNL1        0.0187
      5 C         143.9487  140.1355  165.0975 C.3     1  UNL1        0.0178
      6 C         143.2321  139.8413  166.3821 C.3     1  UNL1        0.0721
      7 C         144.5040  139.1186  164.1448 C.3     1  UNL1        0.0077
      8 C         143.9562  139.0181  162.7521 C.3     1  UNL1        0.0459
      9 C         142.4835  138.8307  162.5371 C.ar    1  UNL1        0.0603
     10 C         141.7817  137.6504  163.1407 C.ar    1  UNL1        0.0145
     11 C         140.3091  137.4630  162.9257 C.ar    1  UNL1       -0.0003
     12 C         139.5382  138.4558  162.1070 C.ar    1  UNL1        0.0092
     13 C         140.2401  139.6360  161.5034 C.ar    1  UNL1        0.1240
     14 N         141.7128  139.8235  161.7184 N.ar    1  UNL1       -0.2356
     15 N         139.4693  140.6288  160.6847 N.pl3   1  UNL1       -0.3184
     16 C         137.9967  140.4414  160.4697 C.3     1  UNL1        0.0885
     17 C         137.2949  139.2611  161.0734 C.3     1  UNL1        0.0260
     18 C         138.0656  138.2683  161.8920 C.3     1  UNL1        0.0309
     19 H         139.9300  141.4035  160.2885 H       1  UNL1        0.1482
     20 C         140.6205  141.3352  168.3271 C.3     1  UNL1        0.0439
     21 C         138.9986  142.0427  164.7748 C.ar    1  UNL1        0.0663
     22 C         138.3185  140.7328  164.5077 C.ar    1  UNL1        0.0176
     23 C         138.4056  139.6236  165.5137 C.ar    1  UNL1        0.0012
     24 C         139.1730  139.8244  166.7869 C.ar    1  UNL1       -0.0041
     25 C         139.8531  141.1344  167.0540 C.ar    1  UNL1       -0.0193
     26 C         139.7659  142.2435  166.0479 C.ar    1  UNL1        0.0134
     27 C         141.4281  143.0996  162.8695 C.3     1  UNL1        0.0742
     28 C         140.0281  143.6377  162.8930 C.ar    1  UNL1        0.1476
     29 N         139.4991  144.7561  162.0449 N.ar    1  UNL1       -0.1329
     30 N         138.0554  144.9616  162.3965 N.ar    1  UNL1       -0.1255
     31 C         137.6923  143.9701  163.4619 C.ar    1  UNL1        0.2066
     32 N         138.9114  143.1519  163.7688 N.ar    1  UNL1       -0.2748
     33 C         139.8880  141.5475  169.6188 C.3     1  UNL1        0.0474
     34 C         140.3512  142.6026  170.5791 C.2     1  UNL1        0.0507
     35 O         139.9668  144.0360  170.3610 O.co2   1  UNL1       -0.5492
     36 O         141.1989  142.2244  171.7574 O.co2   1  UNL1       -0.5492
@<TRIPOS>UNITY_ATOM_ATTR
35 1
charge -1
@<TRIPOS>BOND
     1    27    28    1
     2    28    29   ar
     3    29    30   ar
     4    30    31   ar
     5    31    32   ar
     6    32    21    1
     7    21    22   ar
     8    22    23   ar
     9    23    24   ar
    10    24    25   ar
    11    25    20    1
    12    20    33    1
    13    33    34    1
    14    34    35   ar
    15    34    36   ar
    16    20     1    1
    17     1     2    1
    18     2     3    1
    19     3     4    1
    20     4     5    1
    21     5     7    1
    22     7     8    1
    23     8     9    1
    24     9    10   ar
    25    10    11   ar
    26    11    12   ar
    27    12    13   ar
    28    13    14   ar
    29    13    15    1
    30    15    16    1
    31    16    17    1
    32    17    18    1
    33     5     6    1
    34    25    26   ar
    35    32    28   ar
    36    26    21   ar
    37     6     2    1
    38    14     9   ar
    39    18    12    1
    40    15    19    1
@<TRIPOS>MOLECULE
*****
 36 40 0 0 0
SMALL
GASTEIGER

@<TRIPOS>ATOM
      1 C         140.0621  144.2830  163.8029 C.3     1  UNL1        0.0768
      2 N         140.5670  143.9738  162.4247 N.3     1  UNL1       -0.2724
      3 C         139.7362  143.8963  161.1781 C.3     1  UNL1        0.0721
      4 C         140.6471  143.5624  160.0341 C.3     1  UNL1        0.0187
      5 C         142.0407  143.4335  160.5735 C.3     1  UNL1        0.0178
      6 C         141.9912  143.6877  162.0510 C.3     1  UNL1        0.0721
      7 C         143.2683  143.1076  159.7756 C.3     1  UNL1        0.0077
      8 C         143.9497  141.7834  159.9550 C.3     1  UNL1        0.0459
      9 C         143.9330  141.1065  161.2936 C.ar    1  UNL1        0.0603
     10 C         145.0386  141.3589  162.2754 C.ar    1  UNL1        0.0145
     11 C         145.0219  140.6822  163.6139 C.ar    1  UNL1       -0.0003
     12 C         143.8997  139.7529  163.9706 C.ar    1  UNL1        0.0092
     13 C         142.7942  139.5005  162.9888 C.ar    1  UNL1        0.1240
     14 N         142.8108  140.1773  161.6502 N.ar    1  UNL1       -0.2356
     15 N         141.6720  138.5713  163.3454 N.pl3   1  UNL1       -0.3184
     16 C         141.6553  137.8945  164.6839 C.3     1  UNL1        0.0885
     17 C         142.7609  138.1469  165.6658 C.3     1  UNL1        0.0260
     18 C         143.8831  139.0761  165.3091 C.3     1  UNL1        0.0309
     19 H         140.9464  138.4056  162.7010 H       1  UNL1        0.1482
     20 C         139.8395  143.1728  164.7867 C.3     1  UNL1        0.0439
     21 C         141.5435  142.2632  168.2535 C.ar    1  UNL1        0.0663
     22 C         142.9893  142.2213  167.8563 C.ar    1  UNL1        0.0176
     23 C         143.3852  142.4966  166.4360 C.ar    1  UNL1        0.0012
     24 C         142.3353  142.8137  165.4128 C.ar    1  UNL1       -0.0041
     25 C         140.8894  142.8556  165.8099 C.ar    1  UNL1       -0.0193
     26 C         140.4936  142.5804  167.2303 C.ar    1  UNL1        0.0134
     27 C         141.9166  139.4330  169.8348 C.3     1  UNL1        0.0742
     28 C         141.3191  140.6871  170.4007 C.ar    1  UNL1        0.1476
     29 N         140.7882  140.8605  171.7928 N.ar    1  UNL1       -0.1329
     30 N         140.2885  142.2685  171.9264 N.ar    1  UNL1       -0.1255
     31 C         140.5107  142.9653  170.6168 C.ar    1  UNL1        0.2066
     32 N         141.1476  141.9880  169.6738 N.ar    1  UNL1       -0.2748
     33 C         138.5668  142.3797  164.7473 C.3     1  UNL1        0.0474
     34 C         138.6095  140.9065  164.4683 C.2     1  UNL1        0.0507
     35 O         139.1947  140.4034  163.1821 O.co2   1  UNL1       -0.5492
     36 O         138.0670  139.9364  165.4756 O.co2   1  UNL1       -0.5492
@<TRIPOS>UNITY_ATOM_ATTR
35 1
charge -1
@<TRIPOS>BOND
     1    27    28    1
     2    28    29   ar
     3    29    30   ar
     4    30    31   ar
     5    31    32   ar
     6    32    21    1
     7    21    22   ar
     8    22    23   ar
     9    23    24   ar
    10    24    25   ar
    11    25    20    1
    12    20    33    1
    13    33    34    1
    14    34    35   ar
    15    34    36   ar
    16    20     1    1
    17     1     2    1
    18     2     3    1
    19     3     4    1
    20     4     5    1
    21     5     7    1
    22     7     8    1
    23     8     9    1
    24     9    10   ar
    25    10    11   ar
    26    11    12   ar
    27    12    13   ar
    28    13    14   ar
    29    13    15    1
    30    15    16    1
    31    16    17    1
    32    17    18    1
    33     5     6    1
    34    25    26   ar
    35    32    28   ar
    36    26    21   ar
    37     6     2    1
    38    14     9   ar
    39    18    12    1
    40    15    19    1
@<TRIPOS>MOLECULE
*****
 36 40 0 0 0
SMALL
GASTEIGER

@<TRIPOS>ATOM
      1 C         142.8818  139.1553  164.8687 C.3     1  UNL1        0.0768
      2 N         143.6943  140.4076  164.7213 N.3     1  UNL1       -0.2724
      3 C         144.9457  140.5560  163.9076 C.3     1  UNL1        0.0721
      4 C         145.4228  141.9715  164.0451 C.3     1  UNL1        0.0187
      5 C         144.4663  142.6978  164.9436 C.3     1  UNL1        0.0178
      6 C         143.3980  141.7313  165.3615 C.3     1  UNL1        0.0721
      7 C         144.5613  144.1379  165.3525 C.3     1  UNL1        0.0077
      8 C         144.0281  145.2106  164.4498 C.3     1  UNL1        0.0459
      9 C         142.9504  144.8884  163.4573 C.ar    1  UNL1        0.0603
     10 C         141.5089  144.9593  163.8660 C.ar    1  UNL1        0.0145
     11 C         140.4313  144.6372  162.8736 C.ar    1  UNL1       -0.0003
     12 C         140.7951  144.2442  161.4725 C.ar    1  UNL1        0.0092
     13 C         142.2366  144.1733  161.0637 C.ar    1  UNL1        0.1240
     14 N         143.3143  144.4954  162.0562 N.ar    1  UNL1       -0.2356
     15 N         142.6004  143.7802  159.6626 N.pl3   1  UNL1       -0.3184
     16 C         141.5228  143.4581  158.6703 C.3     1  UNL1        0.0885
     17 C         140.0813  143.5290  159.0790 C.3     1  UNL1        0.0260
     18 C         139.7174  143.9220  160.4801 C.3     1  UNL1        0.0309
     19 H         143.5465  143.7337  159.3944 H       1  UNL1        0.1482
     20 C         141.4027  139.1874  164.6213 C.3     1  UNL1        0.0439
     21 C         139.9512  140.0110  168.2219 C.ar    1  UNL1        0.0663
     22 C         138.5481  139.4984  168.0860 C.ar    1  UNL1        0.0176
     23 C         138.0965  138.8822  166.7951 C.ar    1  UNL1        0.0012
     24 C         139.0480  138.7786  165.6402 C.ar    1  UNL1       -0.0041
     25 C         140.4512  139.2911  165.7762 C.ar    1  UNL1       -0.0193
     26 C         140.9027  139.9073  167.0670 C.ar    1  UNL1        0.0134
     27 C         142.4224  138.9714  170.0826 C.3     1  UNL1        0.0742
     28 C         141.5387  140.1493  170.3680 C.ar    1  UNL1        0.1476
     29 N         141.6357  141.0563  171.5588 N.ar    1  UNL1       -0.1329
     30 N         140.5599  142.0947  171.4395 N.ar    1  UNL1       -0.1255
     31 C         139.7979  141.8295  170.1750 C.ar    1  UNL1        0.2066
     32 N         140.4029  140.6272  169.5127 N.ar    1  UNL1       -0.2748
     33 C         140.8751  139.1159  163.2189 C.3     1  UNL1        0.0474
     34 C         140.5588  140.3773  162.4713 C.2     1  UNL1        0.0507
     35 O         139.4697  141.2856  162.9599 O.co2   1  UNL1       -0.5492
     36 O         141.3316  140.7303  161.2351 O.co2   1  UNL1       -0.5492
@<TRIPOS>UNITY_ATOM_ATTR
35 1
charge -1
@<TRIPOS>BOND
     1    27    28    1
     2    28    29   ar
     3    29    30   ar
     4    30    31   ar
     5    31    32   ar
     6    32    21    1
     7    21    22   ar
     8    22    23   ar
     9    23    24   ar
    10    24    25   ar
    11    25    20    1
    12    20    33    1
    13    33    34    1
    14    34    35   ar
    15    34    36   ar
    16    20     1    1
    17     1     2    1
    18     2     3    1
    19     3     4    1
    20     4     5    1
    21     5     7    1
    22     7     8    1
    23     8     9    1
    24     9    10   ar
    25    10    11   ar
    26    11    12   ar
    27    12    13   ar
    28    13    14   ar
    29    13    15    1
    30    15    16    1
    31    16    17    1
    32    17    18    1
    33     5     6    1
    34    25    26   ar
    35    32    28   ar
    36    26    21   ar
    37     6     2    1
    38    14     9   ar
    39    18    12    1
    40    15    19    1
@<TRIPOS>MOLECULE
*****
 36 40 0 0 0
SMALL
GASTEIGER

@<TRIPOS>ATOM
      1 C         142.4335  141.6185  168.0223 C.3     1  UNL1        0.0768
      2 N         142.9594  140.7866  166.8904 N.3     1  UNL1       -0.2724
      3 C         143.0119  139.2881  166.8477 C.3     1  UNL1        0.0721
      4 C         143.6102  138.8825  165.5333 C.3     1  UNL1        0.0187
      5 C         143.9274  140.1303  164.7636 C.3     1  UNL1        0.0178
      6 C         143.5252  141.3071  165.6024 C.3     1  UNL1        0.0721
      7 C         144.5393  140.1908  163.3955 C.3     1  UNL1        0.0077
      8 C         143.6840  139.9800  162.1814 C.3     1  UNL1        0.0459
      9 C         142.9183  141.1288  161.5948 C.ar    1  UNL1        0.0603
     10 C         142.6500  141.1760  160.1197 C.ar    1  UNL1        0.0145
     11 C         141.8843  142.3247  159.5331 C.ar    1  UNL1       -0.0003
     12 C         141.3870  143.4263  160.4215 C.ar    1  UNL1        0.0092
     13 C         141.6553  143.3791  161.8965 C.ar    1  UNL1        0.1240
     14 N         142.4210  142.2303  162.4832 N.ar    1  UNL1       -0.2356
     15 N         141.1580  144.4806  162.7849 N.pl3   1  UNL1       -0.3184
     16 C         140.3923  145.6293  162.1983 C.3     1  UNL1        0.0885
     17 C         140.1240  145.6765  160.7232 C.3     1  UNL1        0.0260
     18 C         140.6213  144.5750  159.8348 C.3     1  UNL1        0.0309
     19 H         141.3341  144.4497  163.7531 H       1  UNL1        0.1482
     20 C         140.9572  141.8418  168.1661 C.3     1  UNL1        0.0439
     21 C         138.7563  141.0279  164.9657 C.ar    1  UNL1        0.0663
     22 C         138.0861  139.7576  165.3980 C.ar    1  UNL1        0.0176
     23 C         138.3729  139.1819  166.7532 C.ar    1  UNL1        0.0012
     24 C         139.3299  139.8767  167.6759 C.ar    1  UNL1       -0.0041
     25 C         140.0001  141.1471  167.2434 C.ar    1  UNL1       -0.0193
     26 C         139.7133  141.7226  165.8884 C.ar    1  UNL1        0.0134
     27 C         137.5503  143.9991  164.3597 C.3     1  UNL1        0.0742
     28 C         137.9152  142.9692  163.3320 C.ar    1  UNL1        0.1476
     29 N         137.7898  143.1242  161.8453 N.ar    1  UNL1       -0.1329
     30 N         138.2666  141.8543  161.2050 N.ar    1  UNL1       -0.1255
     31 C         138.6867  140.9145  162.2959 C.ar    1  UNL1        0.2066
     32 N         138.4695  141.6035  163.6105 N.ar    1  UNL1       -0.2748
     33 C         140.4379  142.7600  169.2327 C.3     1  UNL1        0.0474
     34 C         141.1363  142.8410  170.5578 C.2     1  UNL1        0.0507
     35 O         140.5172  142.2136  171.7715 O.co2   1  UNL1       -0.5492
     36 O         142.4537  143.5494  170.6691 O.co2   1  UNL1       -0.5492
@<TRIPOS>UNITY_ATOM_ATTR
35 1
charge -1
@<TRIPOS>BOND
     1    27    28    1
     2    28    29   ar
     3    29    30   ar
     4    30    31   ar
     5    31    32   ar
     6    32    21    1
     7    21    22   ar
     8    22    23   ar
     9    23    24   ar
    10    24    25   ar
    11    25    20    1
    12    20    33    1
    13    33    34    1
    14    34    35   ar
    15    34    36   ar
    16    20     1    1
    17     1     2    1
    18     2     3    1
    19     3     4    1
    20     4     5    1
    21     5     7    1
    22     7     8    1
    23     8     9    1
    24     9    10   ar
    25    10    11   ar
    26    11    12   ar
    27    12    13   ar
    28    13    14   ar
    29    13    15    1
    30    15    16    1
    31    16    17    1
    32    17    18    1
    33     5     6    1
    34    25    26   ar
    35    32    28   ar
    36    26    21   ar
    37     6     2    1
    38    14     9   ar
    39    18    12    1
    40    15    19    1
