@<TRIPOS>MOLECULE
*****
 38 40 0 0 0
SMALL
GASTEIGER

@<TRIPOS>ATOM
      1 N         142.9157  139.2277  163.0386 N.am    1  UNL1       -0.2797
      2 C         144.0752  139.8183  162.2924 C.3     1  UNL1        0.0956
      3 C         144.2292  139.0655  161.0041 C.3     1  UNL1        0.0505
      4 C         143.1648  138.0097  160.9542 C.3     1  UNL1        0.1507
      5 C         142.3531  138.1100  162.2116 C.2     1  UNL1        0.2435
      6 O         141.1840  137.2444  162.5776 O.2     1  UNL1       -0.2731
      7 C         141.3925  140.5732  167.0536 C.3     1  UNL1        0.0577
      8 C         142.3428  139.4164  166.9611 C.3     1  UNL1        0.0177
      9 C         142.8505  138.9679  165.6228 C.3     1  UNL1        0.0212
     10 C         142.4080  139.6762  164.3769 C.3     1  UNL1        0.0771
     11 C         141.4577  140.8331  164.4693 C.3     1  UNL1        0.0431
     12 C         140.9499  141.2816  165.8077 C.3     1  UNL1        0.0194
     13 N         140.8848  141.0217  168.3919 N.3     1  UNL1       -0.2741
     14 C         139.8498  140.2093  169.1121 C.3     1  UNL1        0.0896
     15 C         142.8862  142.4502  169.2308 C.3     1  UNL1        0.0173
     16 C         141.4120  142.2826  169.0099 C.3     1  UNL1        0.0576
     17 C         140.4650  143.3761  169.4072 C.3     1  UNL1        0.0173
     18 C         141.0150  141.5415  163.2234 C.3     1  UNL1        0.1524
     19 S         140.3795  142.8969  163.3169 S.O2    1  UNL1       -0.0116
     20 O         141.7377  143.5283  163.3969 O.2     1  UNL1       -0.1730
     21 O         139.0212  142.2656  163.2370 O.2     1  UNL1       -0.1730
     22 C         139.7439  144.2525  163.4104 C.3     1  UNL1        0.1292
     23 C         139.7157  145.1520  162.2104 C.3     1  UNL1        0.0253
     24 C         139.1366  144.7084  164.7040 C.3     1  UNL1        0.0253
     25 N         142.9500  137.0262  159.8421 N.am    1  UNL1       -0.2948
     26 C         142.6121  137.5139  158.4644 C.2     1  UNL1        0.2461
     27 O         142.4890  138.9851  158.1988 O.2     1  UNL1       -0.2701
     28 H         143.0308  136.0607  160.0164 H       1  UNL1        0.1501
     29 C         142.3972  136.5305  157.3525 C.ar    1  UNL1        0.0533
     30 C         141.2793  136.7372  156.3740 C.ar    1  UNL1        0.0045
     31 C         141.0644  135.7537  155.2619 C.ar    1  UNL1        0.0001
     32 C         141.9675  134.5635  155.1284 C.ar    1  UNL1        0.0039
     33 C         143.0854  134.3567  156.1069 C.ar    1  UNL1        0.0716
     34 C         143.3003  135.3403  157.2189 C.ar    1  UNL1        0.0084
     35 C         143.9885  133.1665  155.9733 C.3     1  UNL1        0.4186
     36 F         144.8916  131.9763  155.8398 F       1  UNL1       -0.1659
     37 F         143.3947  132.8668  154.6289 F       1  UNL1       -0.1659
     38 F         144.5823  133.4663  157.3177 F       1  UNL1       -0.1659
@<TRIPOS>BOND
     1    15    16    1
     2    16    17    1
     3    16    13    1
     4    13    14    1
     5     7    13    1
     6     7     8    1
     7     8     9    1
     8     9    10    1
     9    10     1    1
    10     1     2    1
    11     2     3    1
    12     3     4    1
    13     4    25    1
    14    25    26   am
    15    26    27    2
    16    26    29    1
    17    29    30   ar
    18    30    31   ar
    19    31    32   ar
    20    32    33   ar
    21    33    35    1
    22    35    36    1
    23    35    37    1
    24    35    38    1
    25    33    34   ar
    26     4     5    1
    27     5     6    2
    28    10    11    1
    29    11    18    1
    30    18    19    1
    31    19    20    2
    32    19    21    2
    33    19    22    1
    34    22    23    1
    35    22    24    1
    36    11    12    1
    37    12     7    1
    38     5     1   am
    39    34    29   ar
    40    25    28    1
@<TRIPOS>MOLECULE
*****
 38 40 0 0 0
SMALL
GASTEIGER

@<TRIPOS>ATOM
      1 N         141.5299  139.1773  164.1066 N.am    1  UNL1       -0.2797
      2 C         140.2770  138.4449  163.7272 C.3     1  UNL1        0.0956
      3 C         140.4797  137.8556  162.3628 C.3     1  UNL1        0.0505
      4 C         141.8579  138.2236  161.8990 C.3     1  UNL1        0.1507
      5 C         142.5069  139.0405  162.9767 C.2     1  UNL1        0.2435
      6 O         143.8901  139.6190  162.9323 O.2     1  UNL1       -0.2731
      7 C         142.2338  141.3951  167.9583 C.3     1  UNL1        0.0577
      8 C         142.4535  139.9126  167.8955 C.3     1  UNL1        0.0177
      9 C         142.2189  139.1734  166.6116 C.3     1  UNL1        0.0212
     10 C         141.7645  139.9165  165.3905 C.3     1  UNL1        0.0771
     11 C         141.5448  141.3990  165.4533 C.3     1  UNL1        0.0431
     12 C         141.7795  142.1383  166.7372 C.3     1  UNL1        0.0194
     13 N         142.4685  142.1344  169.2422 N.3     1  UNL1       -0.2741
     14 C         143.8676  142.4518  169.6800 C.3     1  UNL1        0.0896
     15 C         140.5998  143.8498  169.8039 C.3     1  UNL1        0.0173
     16 C         141.3040  142.5563  170.0884 C.3     1  UNL1        0.0576
     17 C         140.8436  141.6846  171.2190 C.3     1  UNL1        0.0173
     18 C         141.0904  142.1423  164.2321 C.3     1  UNL1        0.1524
     19 S         139.8987  143.0501  164.3068 S.O2    1  UNL1       -0.0116
     20 O         138.9949  141.8564  164.3957 O.2     1  UNL1       -0.1730
     21 O         140.8026  144.2439  164.2180 O.2     1  UNL1       -0.1730
     22 C         138.7070  143.9580  164.3815 C.3     1  UNL1        0.1292
     23 C         138.5731  144.9279  165.5179 C.3     1  UNL1        0.0253
     24 C         137.6492  143.8960  163.3199 C.3     1  UNL1        0.0253
     25 N         142.4781  137.8419  160.5876 N.am    1  UNL1       -0.2948
     26 C         142.0680  138.5489  159.3299 C.2     1  UNL1        0.2461
     27 O         141.0376  139.6377  159.3834 O.2     1  UNL1       -0.2701
     28 H         143.1544  137.1273  160.5525 H       1  UNL1        0.1501
     29 C         142.6883  138.1671  158.0187 C.ar    1  UNL1        0.0533
     30 C         143.2408  139.2279  157.1133 C.ar    1  UNL1        0.0045
     31 C         143.8611  138.8461  155.8019 C.ar    1  UNL1        0.0001
     32 C         143.9290  137.4037  155.3960 C.ar    1  UNL1        0.0039
     33 C         143.3765  136.3429  156.3014 C.ar    1  UNL1        0.0716
     34 C         142.7561  136.7247  157.6127 C.ar    1  UNL1        0.0084
     35 C         143.4443  134.9005  155.8955 C.3     1  UNL1        0.4186
     36 F         143.5121  133.4581  155.4896 F       1  UNL1       -0.1659
     37 F         143.2275  134.4890  157.3215 F       1  UNL1       -0.1659
     38 F         143.6611  135.3120  154.4694 F       1  UNL1       -0.1659
@<TRIPOS>BOND
     1    15    16    1
     2    16    17    1
     3    16    13    1
     4    13    14    1
     5     7    13    1
     6     7     8    1
     7     8     9    1
     8     9    10    1
     9    10     1    1
    10     1     2    1
    11     2     3    1
    12     3     4    1
    13     4    25    1
    14    25    26   am
    15    26    27    2
    16    26    29    1
    17    29    30   ar
    18    30    31   ar
    19    31    32   ar
    20    32    33   ar
    21    33    35    1
    22    35    36    1
    23    35    37    1
    24    35    38    1
    25    33    34   ar
    26     4     5    1
    27     5     6    2
    28    10    11    1
    29    11    18    1
    30    18    19    1
    31    19    20    2
    32    19    21    2
    33    19    22    1
    34    22    23    1
    35    22    24    1
    36    11    12    1
    37    12     7    1
    38     5     1   am
    39    34    29   ar
    40    25    28    1
@<TRIPOS>MOLECULE
*****
 38 40 0 0 0
SMALL
GASTEIGER

@<TRIPOS>ATOM
      1 N         139.0056  140.0403  163.8923 N.am    1  UNL1       -0.2797
      2 C         137.7335  140.4434  163.2073 C.3     1  UNL1        0.0956
      3 C         137.7518  139.8705  161.8211 C.3     1  UNL1        0.0505
      4 C         139.0353  139.1133  161.6495 C.3     1  UNL1        0.1507
      5 C         139.8101  139.2182  162.9296 C.2     1  UNL1        0.2435
      6 O         141.1536  138.6082  163.1995 O.2     1  UNL1       -0.2731
      7 C         140.1986  141.1094  168.0975 C.3     1  UNL1        0.0577
      8 C         139.3722  139.8842  167.8409 C.3     1  UNL1        0.0177
      9 C         138.9745  139.5278  166.4392 C.3     1  UNL1        0.0212
     10 C         139.4033  140.3966  165.2941 C.3     1  UNL1        0.0771
     11 C         140.2297  141.6218  165.5507 C.3     1  UNL1        0.0431
     12 C         140.6274  141.9782  166.9524 C.3     1  UNL1        0.0194
     13 N         140.5963  141.4657  169.4993 N.3     1  UNL1       -0.2741
     14 C         140.3364  140.5035  170.6202 C.3     1  UNL1        0.0896
     15 C         140.4221  144.0265  169.9020 C.3     1  UNL1        0.0173
     16 C         141.2540  142.7843  169.7800 C.3     1  UNL1        0.0576
     17 C         142.7436  142.8607  169.9389 C.3     1  UNL1        0.0173
     18 C         140.6585  142.4907  164.4056 C.3     1  UNL1        0.1524
     19 S         141.9984  143.1641  164.4358 S.O2    1  UNL1       -0.0116
     20 O         142.6724  141.8272  164.3435 O.2     1  UNL1       -0.1730
     21 O         141.3245  144.5010  164.5282 O.2     1  UNL1       -0.1730
     22 C         143.3385  143.8375  164.4661 C.3     1  UNL1        0.1292
     23 C         143.6218  144.9858  163.5435 C.3     1  UNL1        0.0253
     24 C         144.3952  143.3625  165.4188 C.3     1  UNL1        0.0253
     25 N         139.4679  138.3799  160.4146 N.am    1  UNL1       -0.2948
     26 C         140.5343  138.9593  159.5330 C.2     1  UNL1        0.2461
     27 O         141.1681  140.2721  159.8864 O.2     1  UNL1       -0.2701
     28 H         139.0520  137.5182  160.1826 H       1  UNL1        0.1501
     29 C         140.9669  138.2259  158.2982 C.ar    1  UNL1        0.0533
     30 C         142.3832  137.7496  158.1663 C.ar    1  UNL1        0.0045
     31 C         142.8159  137.0161  156.9314 C.ar    1  UNL1        0.0001
     32 C         141.8323  136.7590  155.8285 C.ar    1  UNL1        0.0039
     33 C         140.4160  137.2353  155.9604 C.ar    1  UNL1        0.0716
     34 C         139.9834  137.9687  157.1953 C.ar    1  UNL1        0.0084
     35 C         139.4324  136.9781  154.8575 C.3     1  UNL1        0.4186
     36 F         138.4489  136.7209  153.7546 F       1  UNL1       -0.1659
     37 F         140.3204  135.8963  154.3179 F       1  UNL1       -0.1659
     38 F         138.5445  138.0599  155.3971 F       1  UNL1       -0.1659
@<TRIPOS>BOND
     1    15    16    1
     2    16    17    1
     3    16    13    1
     4    13    14    1
     5     7    13    1
     6     7     8    1
     7     8     9    1
     8     9    10    1
     9    10     1    1
    10     1     2    1
    11     2     3    1
    12     3     4    1
    13     4    25    1
    14    25    26   am
    15    26    27    2
    16    26    29    1
    17    29    30   ar
    18    30    31   ar
    19    31    32   ar
    20    32    33   ar
    21    33    35    1
    22    35    36    1
    23    35    37    1
    24    35    38    1
    25    33    34   ar
    26     4     5    1
    27     5     6    2
    28    10    11    1
    29    11    18    1
    30    18    19    1
    31    19    20    2
    32    19    21    2
    33    19    22    1
    34    22    23    1
    35    22    24    1
    36    11    12    1
    37    12     7    1
    38     5     1   am
    39    34    29   ar
    40    25    28    1
@<TRIPOS>MOLECULE
*****
 38 40 0 0 0
SMALL
GASTEIGER

@<TRIPOS>ATOM
      1 N         138.8194  139.2358  163.1215 N.am    1  UNL1       -0.2797
      2 C         139.3198  138.0576  162.3396 C.3     1  UNL1        0.0956
      3 C         138.8587  138.2132  160.9207 C.3     1  UNL1        0.0505
      4 C         138.0732  139.4875  160.8258 C.3     1  UNL1        0.1507
      5 C         138.0489  140.1195  162.1859 C.2     1  UNL1        0.2435
      6 O         137.3728  141.4089  162.5470 O.2     1  UNL1       -0.2731
      7 C         139.5083  139.9872  167.5045 C.3     1  UNL1        0.0577
      8 C         138.4010  139.0760  167.0648 C.3     1  UNL1        0.0177
      9 C         138.1713  138.8255  165.6038 C.3     1  UNL1        0.0212
     10 C         139.0490  139.4863  164.5825 C.3     1  UNL1        0.0771
     11 C         140.1564  140.3974  165.0223 C.3     1  UNL1        0.0431
     12 C         140.3861  140.6479  166.4833 C.3     1  UNL1        0.0194
     13 N         139.7380  140.2376  168.9655 N.3     1  UNL1       -0.2741
     14 C         138.5792  140.2359  169.9180 C.3     1  UNL1        0.0896
     15 C         141.5688  141.8891  169.7847 C.3     1  UNL1        0.0173
     16 C         141.1264  140.4898  169.4741 C.3     1  UNL1        0.0576
     17 C         142.0726  139.3428  169.6720 C.3     1  UNL1        0.0173
     18 C         141.0342  141.0582  164.0010 C.3     1  UNL1        0.1524
     19 S         142.4287  141.4727  164.3662 S.O2    1  UNL1       -0.0116
     20 O         141.9887  142.9057  164.4200 O.2     1  UNL1       -0.1730
     21 O         142.8688  140.0398  164.3124 O.2     1  UNL1       -0.1730
     22 C         143.8233  141.8873  164.7315 C.3     1  UNL1        0.1292
     23 C         144.9990  141.1890  164.1150 C.3     1  UNL1        0.0253
     24 C         144.0421  143.0002  165.7131 C.3     1  UNL1        0.0253
     25 N         137.4257  140.0340  159.5880 N.am    1  UNL1       -0.2948
     26 C         138.1593  141.0238  158.7323 C.2     1  UNL1        0.2461
     27 O         139.5403  141.4672  159.1144 O.2     1  UNL1       -0.2701
     28 H         136.5192  139.7430  159.3372 H       1  UNL1        0.1501
     29 C         137.5117  141.5702  157.4946 C.ar    1  UNL1        0.0533
     30 C         136.4490  140.7782  156.7921 C.ar    1  UNL1        0.0045
     31 C         135.8014  141.3246  155.5542 C.ar    1  UNL1        0.0001
     32 C         136.2165  142.6629  155.0190 C.ar    1  UNL1        0.0039
     33 C         137.2792  143.4549  155.7214 C.ar    1  UNL1        0.0716
     34 C         137.9268  142.9085  156.9593 C.ar    1  UNL1        0.0084
     35 C         137.6942  144.7933  155.1862 C.3     1  UNL1        0.4186
     36 F         138.1093  146.1316  154.6509 F       1  UNL1       -0.1659
     37 F         138.7520  144.8889  156.2454 F       1  UNL1       -0.1659
     38 F         136.6365  144.6976  154.1269 F       1  UNL1       -0.1659
@<TRIPOS>BOND
     1    15    16    1
     2    16    17    1
     3    16    13    1
     4    13    14    1
     5     7    13    1
     6     7     8    1
     7     8     9    1
     8     9    10    1
     9    10     1    1
    10     1     2    1
    11     2     3    1
    12     3     4    1
    13     4    25    1
    14    25    26   am
    15    26    27    2
    16    26    29    1
    17    29    30   ar
    18    30    31   ar
    19    31    32   ar
    20    32    33   ar
    21    33    35    1
    22    35    36    1
    23    35    37    1
    24    35    38    1
    25    33    34   ar
    26     4     5    1
    27     5     6    2
    28    10    11    1
    29    11    18    1
    30    18    19    1
    31    19    20    2
    32    19    21    2
    33    19    22    1
    34    22    23    1
    35    22    24    1
    36    11    12    1
    37    12     7    1
    38     5     1   am
    39    34    29   ar
    40    25    28    1
@<TRIPOS>MOLECULE
*****
 38 40 0 0 0
SMALL
GASTEIGER

@<TRIPOS>ATOM
      1 N         143.0384  139.1766  163.0983 N.am    1  UNL1       -0.2797
      2 C         144.0943  139.9220  162.3372 C.3     1  UNL1        0.0956
      3 C         144.0965  139.4115  160.9267 C.3     1  UNL1        0.0505
      4 C         143.0418  138.3506  160.8161 C.3     1  UNL1        0.1507
      5 C         142.3879  138.2054  162.1582 C.2     1  UNL1        0.2435
      6 O         141.2783  137.2558  162.5002 O.2     1  UNL1       -0.2731
      7 C         142.0036  139.7526  167.4397 C.3     1  UNL1        0.0577
      8 C         143.1075  138.8149  167.0498 C.3     1  UNL1        0.0177
      9 C         143.4524  138.6229  165.6027 C.3     1  UNL1        0.0212
     10 C         142.6934  139.3686  164.5455 C.3     1  UNL1        0.0771
     11 C         141.5895  140.3063  164.9353 C.3     1  UNL1        0.0431
     12 C         141.2446  140.4983  166.3824 C.3     1  UNL1        0.0194
     13 N         141.6586  139.9447  168.8868 N.3     1  UNL1       -0.2741
     14 C         142.3635  139.1408  169.9389 C.3     1  UNL1        0.0896
     15 C         139.2131  140.4800  169.5815 C.3     1  UNL1        0.0173
     16 C         140.6089  140.9405  169.2818 C.3     1  UNL1        0.0576
     17 C         140.9548  142.3971  169.3772 C.3     1  UNL1        0.0173
     18 C         140.8305  141.0520  163.8780 C.3     1  UNL1        0.1524
     19 S         140.5064  142.5039  164.0706 S.O2    1  UNL1       -0.0116
     20 O         141.9692  142.8345  164.0395 O.2     1  UNL1       -0.1730
     21 O         139.0437  142.1733  164.1017 O.2     1  UNL1       -0.1730
     22 C         140.1824  143.9558  164.2632 C.3     1  UNL1        0.1292
     23 C         139.1127  144.3633  165.2325 C.3     1  UNL1        0.0253
     24 C         140.9282  145.0001  163.4866 C.3     1  UNL1        0.0253
     25 N         142.7010  137.5717  159.5804 N.am    1  UNL1       -0.2948
     26 C         141.8308  138.1847  158.5235 C.2     1  UNL1        0.2461
     27 O         141.3015  139.5768  158.7024 O.2     1  UNL1       -0.2701
     28 H         143.0484  136.6580  159.4630 H       1  UNL1        0.1501
     29 C         141.4900  137.4058  157.2879 C.ar    1  UNL1        0.0533
     30 C         140.3492  137.8421  156.4171 C.ar    1  UNL1        0.0045
     31 C         140.0083  137.0630  155.1813 C.ar    1  UNL1        0.0001
     32 C         140.8082  135.8478  154.8164 C.ar    1  UNL1        0.0039
     33 C         141.9491  135.4115  155.6871 C.ar    1  UNL1        0.0716
     34 C         142.2899  136.1905  156.9229 C.ar    1  UNL1        0.0084
     35 C         142.7490  134.1962  155.3222 C.3     1  UNL1        0.4186
     36 F         143.5490  132.9810  154.9572 F       1  UNL1       -0.1659
     37 F         141.5280  133.3416  155.4914 F       1  UNL1       -0.1659
     38 F         143.9701  135.0508  155.1529 F       1  UNL1       -0.1659
@<TRIPOS>BOND
     1    15    16    1
     2    16    17    1
     3    16    13    1
     4    13    14    1
     5     7    13    1
     6     7     8    1
     7     8     9    1
     8     9    10    1
     9    10     1    1
    10     1     2    1
    11     2     3    1
    12     3     4    1
    13     4    25    1
    14    25    26   am
    15    26    27    2
    16    26    29    1
    17    29    30   ar
    18    30    31   ar
    19    31    32   ar
    20    32    33   ar
    21    33    35    1
    22    35    36    1
    23    35    37    1
    24    35    38    1
    25    33    34   ar
    26     4     5    1
    27     5     6    2
    28    10    11    1
    29    11    18    1
    30    18    19    1
    31    19    20    2
    32    19    21    2
    33    19    22    1
    34    22    23    1
    35    22    24    1
    36    11    12    1
    37    12     7    1
    38     5     1   am
    39    34    29   ar
    40    25    28    1
@<TRIPOS>MOLECULE
*****
 38 40 0 0 0
SMALL
GASTEIGER

@<TRIPOS>ATOM
      1 N         143.0320  142.0595  162.3170 N.am    1  UNL1       -0.2797
      2 C         144.2638  141.9402  161.4694 C.3     1  UNL1        0.0956
      3 C         143.8921  142.2916  160.0593 C.3     1  UNL1        0.0505
      4 C         142.4305  142.6281  160.0354 C.3     1  UNL1        0.1507
      5 C         141.8990  142.4847  161.4307 C.2     1  UNL1        0.2435
      6 O         140.4830  142.7243  161.8638 O.2     1  UNL1       -0.2731
      7 C         142.7801  141.2790  166.7416 C.3     1  UNL1        0.0577
      8 C         143.3087  142.5901  166.2402 C.3     1  UNL1        0.0177
      9 C         143.3927  142.8503  164.7653 C.3     1  UNL1        0.0212
     10 C         142.9481  141.7993  163.7919 C.3     1  UNL1        0.0771
     11 C         142.4194  140.4882  164.2932 C.3     1  UNL1        0.0431
     12 C         142.3354  140.2280  165.7681 C.3     1  UNL1        0.0194
     13 N         142.6961  141.0188  168.2165 N.3     1  UNL1       -0.2741
     14 C         142.5326  139.6163  168.7225 C.3     1  UNL1        0.0896
     15 C         144.0770  142.4855  169.8572 C.3     1  UNL1        0.0173
     16 C         142.7757  142.1612  169.1853 C.3     1  UNL1        0.0576
     17 C         141.5539  142.9793  169.4823 C.3     1  UNL1        0.0173
     18 C         141.9747  139.4372  163.3197 C.3     1  UNL1        0.1524
     19 S         140.6653  138.7339  163.5216 S.O2    1  UNL1       -0.0116
     20 O         139.9375  140.0283  163.3103 O.2     1  UNL1       -0.1730
     21 O         141.3931  137.4394  163.7328 O.2     1  UNL1       -0.1730
     22 C         139.3558  138.0306  163.7234 C.3     1  UNL1        0.1292
     23 C         138.9451  137.5899  165.0971 C.3     1  UNL1        0.0253
     24 C         138.4571  137.7680  162.5515 C.3     1  UNL1        0.0253
     25 N         141.6393  143.0364  158.8282 N.am    1  UNL1       -0.2948
     26 C         141.2104  144.4639  158.6602 C.2     1  UNL1        0.2461
     27 O         141.5726  145.4832  159.6994 O.2     1  UNL1       -0.2701
     28 H         141.4016  142.3675  158.1461 H       1  UNL1        0.1501
     29 C         140.4192  144.8721  157.4530 C.ar    1  UNL1        0.0533
     30 C         139.9833  143.8384  156.4573 C.ar    1  UNL1        0.0045
     31 C         139.1921  144.2466  155.2500 C.ar    1  UNL1        0.0001
     32 C         138.8368  145.6884  155.0385 C.ar    1  UNL1        0.0039
     33 C         139.2727  146.7222  156.0342 C.ar    1  UNL1        0.0716
     34 C         140.0639  146.3140  157.2415 C.ar    1  UNL1        0.0084
     35 C         138.9174  148.1640  155.8226 C.3     1  UNL1        0.4186
     36 F         138.5621  149.6059  155.6111 F       1  UNL1       -0.1659
     37 F         139.1980  148.0181  154.3564 F       1  UNL1       -0.1659
     38 F         138.6369  148.3100  157.2889 F       1  UNL1       -0.1659
@<TRIPOS>BOND
     1    15    16    1
     2    16    17    1
     3    16    13    1
     4    13    14    1
     5     7    13    1
     6     7     8    1
     7     8     9    1
     8     9    10    1
     9    10     1    1
    10     1     2    1
    11     2     3    1
    12     3     4    1
    13     4    25    1
    14    25    26   am
    15    26    27    2
    16    26    29    1
    17    29    30   ar
    18    30    31   ar
    19    31    32   ar
    20    32    33   ar
    21    33    35    1
    22    35    36    1
    23    35    37    1
    24    35    38    1
    25    33    34   ar
    26     4     5    1
    27     5     6    2
    28    10    11    1
    29    11    18    1
    30    18    19    1
    31    19    20    2
    32    19    21    2
    33    19    22    1
    34    22    23    1
    35    22    24    1
    36    11    12    1
    37    12     7    1
    38     5     1   am
    39    34    29   ar
    40    25    28    1
@<TRIPOS>MOLECULE
*****
 38 40 0 0 0
SMALL
GASTEIGER

@<TRIPOS>ATOM
      1 N         143.7072  141.9351  164.1027 N.am    1  UNL1       -0.2797
      2 C         145.0013  141.4384  163.5295 C.3     1  UNL1        0.0956
      3 C         145.1182  141.9602  162.1281 C.3     1  UNL1        0.0505
      4 C         143.8963  142.7795  161.8351 C.3     1  UNL1        0.1507
      5 C         143.0243  142.7640  163.0555 C.2     1  UNL1        0.2435
      6 O         141.7016  143.4559  163.2028 O.2     1  UNL1       -0.2731
      7 C         142.1475  141.0877  168.2378 C.3     1  UNL1        0.0577
      8 C         142.9551  142.3250  167.9799 C.3     1  UNL1        0.0177
      9 C         143.4750  142.6075  166.6015 C.3     1  UNL1        0.0212
     10 C         143.1873  141.6526  165.4811 C.3     1  UNL1        0.0771
     11 C         142.3797  140.4153  165.7390 C.3     1  UNL1        0.0431
     12 C         141.8598  140.1328  167.1174 C.3     1  UNL1        0.0194
     13 N         141.6276  140.8052  169.6162 N.3     1  UNL1       -0.2741
     14 C         142.4726  140.0456  170.5954 C.3     1  UNL1        0.0896
     15 C         139.0863  140.3568  169.9174 C.3     1  UNL1        0.0173
     16 C         140.2627  141.2823  170.0153 C.3     1  UNL1        0.0576
     17 C         140.0741  142.6849  170.5125 C.3     1  UNL1        0.0173
     18 C         142.0919  139.4603  164.6186 C.3     1  UNL1        0.1524
     19 S         140.7377  138.8257  164.5032 S.O2    1  UNL1       -0.0116
     20 O         140.1380  140.1633  164.1849 O.2     1  UNL1       -0.1730
     21 O         141.3373  137.4882  164.8214 O.2     1  UNL1       -0.1730
     22 C         139.3833  138.1912  164.3877 C.3     1  UNL1        0.1292
     23 C         138.5119  138.0574  165.6012 C.3     1  UNL1        0.0253
     24 C         138.9006  137.6904  163.0588 C.3     1  UNL1        0.0253
     25 N         143.5987  143.4896  160.5478 N.am    1  UNL1       -0.2948
     26 C         142.7820  142.8109  159.4883 C.2     1  UNL1        0.2461
     27 O         142.2630  141.4222  159.7161 O.2     1  UNL1       -0.2701
     28 H         143.9394  144.4011  160.3983 H       1  UNL1        0.1501
     29 C         142.4845  143.5211  158.2011 C.ar    1  UNL1        0.0533
     30 C         143.2048  143.1298  156.9448 C.ar    1  UNL1        0.0045
     31 C         142.9072  143.8400  155.6575 C.ar    1  UNL1        0.0001
     32 C         141.8894  144.9414  155.6264 C.ar    1  UNL1        0.0039
     33 C         141.1691  145.3327  156.8826 C.ar    1  UNL1        0.0716
     34 C         141.4667  144.6225  158.1700 C.ar    1  UNL1        0.0084
     35 C         140.1513  146.4340  156.8516 C.3     1  UNL1        0.4186
     36 F         139.1335  147.5354  156.8205 F       1  UNL1       -0.1659
     37 F         140.4101  146.6319  155.3874 F       1  UNL1       -0.1659
     38 F         139.8925  146.2362  158.3157 F       1  UNL1       -0.1659
@<TRIPOS>BOND
     1    15    16    1
     2    16    17    1
     3    16    13    1
     4    13    14    1
     5     7    13    1
     6     7     8    1
     7     8     9    1
     8     9    10    1
     9    10     1    1
    10     1     2    1
    11     2     3    1
    12     3     4    1
    13     4    25    1
    14    25    26   am
    15    26    27    2
    16    26    29    1
    17    29    30   ar
    18    30    31   ar
    19    31    32   ar
    20    32    33   ar
    21    33    35    1
    22    35    36    1
    23    35    37    1
    24    35    38    1
    25    33    34   ar
    26     4     5    1
    27     5     6    2
    28    10    11    1
    29    11    18    1
    30    18    19    1
    31    19    20    2
    32    19    21    2
    33    19    22    1
    34    22    23    1
    35    22    24    1
    36    11    12    1
    37    12     7    1
    38     5     1   am
    39    34    29   ar
    40    25    28    1
@<TRIPOS>MOLECULE
*****
 38 40 0 0 0
SMALL
GASTEIGER

@<TRIPOS>ATOM
      1 N         143.0600  138.9684  163.1606 N.am    1  UNL1       -0.2797
      2 C         144.1849  139.6393  162.4296 C.3     1  UNL1        0.0956
      3 C         144.2280  139.0854  161.0362 C.3     1  UNL1        0.0505
      4 C         143.1297  138.0721  160.9061 C.3     1  UNL1        0.1507
      5 C         142.4078  137.9998  162.2190 C.2     1  UNL1        0.2435
      6 O         141.2390  137.1143  162.5349 O.2     1  UNL1       -0.2731
      7 C         141.8535  139.7279  167.4288 C.3     1  UNL1        0.0577
      8 C         143.0678  138.9001  167.1286 C.3     1  UNL1        0.0177
      9 C         143.4700  138.6469  165.7059 C.3     1  UNL1        0.0212
     10 C         142.6578  139.2215  164.5833 C.3     1  UNL1        0.0771
     11 C         141.4435  140.0493  164.8835 C.3     1  UNL1        0.0431
     12 C         141.0414  140.3025  166.3062 C.3     1  UNL1        0.0194
     13 N         141.4514  139.9811  168.8515 N.3     1  UNL1       -0.2741
     14 C         142.1980  139.3187  169.9712 C.3     1  UNL1        0.0896
     15 C         138.9719  140.3261  169.5467 C.3     1  UNL1        0.0173
     16 C         140.3026  140.8967  169.1546 C.3     1  UNL1        0.0576
     17 C         140.4844  142.3831  169.0655 C.3     1  UNL1        0.0173
     18 C         140.6313  140.6240  163.7609 C.3     1  UNL1        0.1524
     19 S         139.7820  141.8380  163.9947 S.O2    1  UNL1       -0.0116
     20 O         140.9996  142.7086  163.8977 O.2     1  UNL1       -0.1730
     21 O         138.5643  140.9675  164.0917 O.2     1  UNL1       -0.1730
     22 C         138.9326  143.0522  164.2286 C.3     1  UNL1        0.1292
     23 C         137.7419  143.3140  163.3547 C.3     1  UNL1        0.0253
     24 C         139.2740  144.0043  165.3361 C.3     1  UNL1        0.0253
     25 N         142.8095  137.2717  159.6786 N.am    1  UNL1       -0.2948
     26 C         142.5086  137.9696  158.3854 C.2     1  UNL1        0.2461
     27 O         142.5280  139.4681  158.3197 O.2     1  UNL1       -0.2701
     28 H         142.7967  136.2882  159.7217 H       1  UNL1        0.1501
     29 C         142.1884  137.1692  157.1580 C.ar    1  UNL1        0.0533
     30 C         143.1769  136.1690  156.6359 C.ar    1  UNL1        0.0045
     31 C         142.8566  135.3685  155.4084 C.ar    1  UNL1        0.0001
     32 C         141.5480  135.5681  154.7031 C.ar    1  UNL1        0.0039
     33 C         140.5594  136.5682  155.2252 C.ar    1  UNL1        0.0716
     34 C         140.8797  137.3688  156.4527 C.ar    1  UNL1        0.0084
     35 C         139.2508  136.7678  154.5199 C.3     1  UNL1        0.4186
     36 F         137.9421  136.9674  153.8146 F       1  UNL1       -0.1659
     37 F         138.6155  137.1792  155.8150 F       1  UNL1       -0.1659
     38 F         139.8860  136.3564  153.2249 F       1  UNL1       -0.1659
@<TRIPOS>BOND
     1    15    16    1
     2    16    17    1
     3    16    13    1
     4    13    14    1
     5     7    13    1
     6     7     8    1
     7     8     9    1
     8     9    10    1
     9    10     1    1
    10     1     2    1
    11     2     3    1
    12     3     4    1
    13     4    25    1
    14    25    26   am
    15    26    27    2
    16    26    29    1
    17    29    30   ar
    18    30    31   ar
    19    31    32   ar
    20    32    33   ar
    21    33    35    1
    22    35    36    1
    23    35    37    1
    24    35    38    1
    25    33    34   ar
    26     4     5    1
    27     5     6    2
    28    10    11    1
    29    11    18    1
    30    18    19    1
    31    19    20    2
    32    19    21    2
    33    19    22    1
    34    22    23    1
    35    22    24    1
    36    11    12    1
    37    12     7    1
    38     5     1   am
    39    34    29   ar
    40    25    28    1
@<TRIPOS>MOLECULE
*****
 38 40 0 0 0
SMALL
GASTEIGER

@<TRIPOS>ATOM
      1 N         139.1714  139.3019  163.7812 N.am    1  UNL1       -0.2797
      2 C         139.0206  137.9176  163.2236 C.3     1  UNL1        0.0956
      3 C         138.4702  138.0354  161.8332 C.3     1  UNL1        0.0505
      4 C         138.2808  139.4925  161.5315 C.3     1  UNL1        0.1507
      5 C         138.7141  140.2752  162.7355 C.2     1  UNL1        0.2435
      6 O         138.6938  141.7690  162.8700 O.2     1  UNL1       -0.2731
      7 C         140.7228  140.3508  167.8730 C.3     1  UNL1        0.0577
      8 C         139.3088  139.8795  167.7052 C.3     1  UNL1        0.0177
      9 C         138.7916  139.5299  166.3413 C.3     1  UNL1        0.0212
     10 C         139.6885  139.6515  165.1452 C.3     1  UNL1        0.0771
     11 C         141.1026  140.1228  165.3130 C.3     1  UNL1        0.0431
     12 C         141.6198  140.4724  166.6769 C.3     1  UNL1        0.0194
     13 N         141.2400  140.7004  169.2370 N.3     1  UNL1       -0.2741
     14 C         141.3019  139.6513  170.3072 C.3     1  UNL1        0.0896
     15 C         140.6961  143.2164  169.5888 C.3     1  UNL1        0.0173
     16 C         141.6953  142.0991  169.5306 C.3     1  UNL1        0.0576
     17 C         143.1497  142.3806  169.7662 C.3     1  UNL1        0.0173
     18 C         141.9996  140.2445  164.1169 C.3     1  UNL1        0.1524
     19 S         143.1951  141.1491  164.1649 S.O2    1  UNL1       -0.0116
     20 O         144.0792  139.9668  164.4303 O.2     1  UNL1       -0.1730
     21 O         142.3111  142.3315  163.8995 O.2     1  UNL1       -0.1730
     22 C         144.3907  142.0538  164.2129 C.3     1  UNL1        0.1292
     23 C         144.3758  143.2705  165.0901 C.3     1  UNL1        0.0253
     24 C         145.6011  141.7418  163.3838 C.3     1  UNL1        0.0253
     25 N         137.7511  140.0661  160.2507 N.am    1  UNL1       -0.2948
     26 C         138.6666  140.8175  159.3302 C.2     1  UNL1        0.2461
     27 O         140.1117  140.9953  159.6905 O.2     1  UNL1       -0.2701
     28 H         136.8026  139.9494  160.0143 H       1  UNL1        0.1501
     29 C         138.1368  141.3911  158.0496 C.ar    1  UNL1        0.0533
     30 C         138.9149  142.4474  157.3224 C.ar    1  UNL1        0.0045
     31 C         138.3851  143.0211  156.0416 C.ar    1  UNL1        0.0001
     32 C         137.0772  142.5384  155.4880 C.ar    1  UNL1        0.0039
     33 C         136.2991  141.4822  156.2152 C.ar    1  UNL1        0.0716
     34 C         136.8289  140.9085  157.4960 C.ar    1  UNL1        0.0084
     35 C         134.9912  140.9995  155.6616 C.3     1  UNL1        0.4186
     36 F         133.6833  140.5169  155.1081 F       1  UNL1       -0.1659
     37 F         135.2573  141.7419  154.3857 F       1  UNL1       -0.1659
     38 F         134.7251  140.2572  156.9376 F       1  UNL1       -0.1659
@<TRIPOS>BOND
     1    15    16    1
     2    16    17    1
     3    16    13    1
     4    13    14    1
     5     7    13    1
     6     7     8    1
     7     8     9    1
     8     9    10    1
     9    10     1    1
    10     1     2    1
    11     2     3    1
    12     3     4    1
    13     4    25    1
    14    25    26   am
    15    26    27    2
    16    26    29    1
    17    29    30   ar
    18    30    31   ar
    19    31    32   ar
    20    32    33   ar
    21    33    35    1
    22    35    36    1
    23    35    37    1
    24    35    38    1
    25    33    34   ar
    26     4     5    1
    27     5     6    2
    28    10    11    1
    29    11    18    1
    30    18    19    1
    31    19    20    2
    32    19    21    2
    33    19    22    1
    34    22    23    1
    35    22    24    1
    36    11    12    1
    37    12     7    1
    38     5     1   am
    39    34    29   ar
    40    25    28    1
