@<TRIPOS>MOLECULE
*****
 32 37 0 0 0
SMALL
GASTEIGER

@<TRIPOS>ATOM
      1 N         138.4750  145.1323  165.5906 N.pl3   1  UNL1       -0.3133
      2 C         138.4130  144.2817  164.3566 C.2     1  UNL1        0.2770
      3 N         138.6751  142.8063  164.2886 N.2     1  UNL1       -0.2202
      4 C         138.5021  142.3700  162.8640 C.3     1  UNL1        0.1580
      5 C         138.1332  143.5758  162.0515 C.3     1  UNL1        0.2351
      6 O         138.0781  144.7572  162.9740 O.2     1  UNL1       -0.4478
      7 C         138.8756  141.2598  163.8010 C.ar    1  UNL1        0.0357
      8 C         139.0823  141.5464  165.2588 C.ar    1  UNL1        0.0007
      9 C         139.4557  140.4363  166.1958 C.ar    1  UNL1        0.0014
     10 C         139.6224  139.0394  165.6751 C.ar    1  UNL1        0.0031
     11 C         139.4157  138.7528  164.2173 C.ar    1  UNL1        0.0366
     12 C         139.0423  139.8631  163.2802 C.ar    1  UNL1        0.1360
     13 O         138.8356  139.5765  161.8224 O.3     1  UNL1       -0.4826
     14 C         138.4622  140.6866  160.8854 C.3     1  UNL1        0.1395
     15 C         138.5365  139.4605  160.0245 C.3     1  UNL1        0.0404
     16 C         138.1698  140.2813  158.8237 C.3     1  UNL1        0.0072
     17 C         138.0955  141.5075  159.6846 C.3     1  UNL1        0.0404
     18 C         138.2954  142.0834  161.4062 C.3     1  UNL1        0.1141
     19 C         138.3996  141.7737  161.6676 C.3     1  UNL1        0.1501
     20 O         138.2901  142.0992  161.3928 O.3     1  UNL1       -0.3532
     21 C         138.3996  141.7737  161.6676 C.3     1  UNL1        0.1501
     22 H         138.7051  144.7260  166.4574 H       1  UNL1        0.1466
     23 H         138.2856  146.0967  165.5337 H       1  UNL1        0.1466
     24 C         139.6624  140.7228  167.6536 C.ar    1  UNL1        0.0190
     25 C         139.2250  139.7241  168.6837 C.ar    1  UNL1        0.0988
     26 N         139.4317  140.0107  170.1415 N.ar    1  UNL1       -0.2425
     27 C         140.0758  141.2960  170.5692 C.ar    1  UNL1        0.1000
     28 C         140.5132  142.2949  169.5391 C.ar    1  UNL1        0.0627
     29 C         140.3065  142.0083  168.0813 C.ar    1  UNL1        0.0042
     30 C         141.1572  143.5803  169.9668 C.3     1  UNL1        0.3425
     31 F         140.3500  144.8436  170.0159 F       1  UNL1       -0.1932
     32 F         142.6085  143.6024  170.3454 F       1  UNL1       -0.1932
@<TRIPOS>BOND
     1     1     2    1
     2     2     3    2
     3     3     4    1
     4     4     5    1
     5     5     6    1
     6     4     7    1
     7     7     8   ar
     8     8     9   ar
     9     9    24    1
    10    24    25   ar
    11    25    26   ar
    12    26    27   ar
    13    27    28   ar
    14    28    30    1
    15    30    31    1
    16    30    32    1
    17    28    29   ar
    18     9    10   ar
    19    10    11   ar
    20    11    12   ar
    21    12    13    1
    22    13    14    1
    23    14    15    1
    24    15    16    1
    25    16    17    1
    26    14    18    1
    27    18    19    1
    28    19    20    1
    29    20    21    1
    30     6     2    1
    31    12     7   ar
    32    17    14    1
    33    21    18    1
    34    18     4    1
    35    29    24   ar
    36     1    22    1
    37     1    23    1
@<TRIPOS>MOLECULE
*****
 32 37 0 0 0
SMALL
GASTEIGER

@<TRIPOS>ATOM
      1 N         143.4776  143.0029  165.4469 N.pl3   1  UNL1       -0.3133
      2 C         142.5457  142.3594  164.4634 C.2     1  UNL1        0.2770
      3 N         141.3582  141.5073  164.8013 N.2     1  UNL1       -0.2202
      4 C         140.7162  141.0763  163.5161 C.3     1  UNL1        0.1580
      5 C         141.5068  141.6620  162.3838 C.3     1  UNL1        0.2351
      6 O         142.6375  142.4549  162.9693 O.2     1  UNL1       -0.4478
      7 C         140.0274  140.5612  164.7450 C.ar    1  UNL1        0.0357
      8 C         140.5572  140.9109  166.1040 C.ar    1  UNL1        0.0007
      9 C         139.8684  140.3957  167.3329 C.ar    1  UNL1        0.0014
     10 C         138.6497  139.5309  167.2028 C.ar    1  UNL1        0.0031
     11 C         138.1198  139.1812  165.8437 C.ar    1  UNL1        0.0366
     12 C         138.8087  139.6964  164.6148 C.ar    1  UNL1        0.1360
     13 O         138.2789  139.3467  163.2558 O.3     1  UNL1       -0.4826
     14 C         138.9677  139.8619  162.0269 C.3     1  UNL1        0.1395
     15 C         137.8142  139.0512  161.5145 C.3     1  UNL1        0.0404
     16 C         138.2183  139.3673  160.1049 C.3     1  UNL1        0.0072
     17 C         139.3718  140.1780  160.6173 C.3     1  UNL1        0.0404
     18 C         140.1863  140.7266  162.1571 C.3     1  UNL1        0.1141
     19 C         139.9941  140.5829  162.4999 C.3     1  UNL1        0.1501
     20 O         140.1961  140.7340  162.1396 O.3     1  UNL1       -0.3532
     21 C         139.9941  140.5829  162.4999 C.3     1  UNL1        0.1501
     22 H         143.3341  142.8812  166.4133 H       1  UNL1        0.1466
     23 H         144.2328  143.5469  165.1261 H       1  UNL1        0.1466
     24 C         140.3983  140.7454  168.6919 C.ar    1  UNL1        0.0190
     25 C         139.7175  140.2191  169.9206 C.ar    1  UNL1        0.0988
     26 N         140.2474  140.5688  171.2796 N.ar    1  UNL1       -0.2425
     27 C         141.4580  141.4447  171.4100 C.ar    1  UNL1        0.1000
     28 C         142.1388  141.9711  170.1814 C.ar    1  UNL1        0.0627
     29 C         141.6089  141.6214  168.8223 C.ar    1  UNL1        0.0042
     30 C         143.3494  142.8471  170.3118 C.3     1  UNL1        0.3425
     31 F         143.2818  144.1032  171.1288 F       1  UNL1       -0.1932
     32 F         144.6278  142.4669  169.6252 F       1  UNL1       -0.1932
@<TRIPOS>BOND
     1     1     2    1
     2     2     3    2
     3     3     4    1
     4     4     5    1
     5     5     6    1
     6     4     7    1
     7     7     8   ar
     8     8     9   ar
     9     9    24    1
    10    24    25   ar
    11    25    26   ar
    12    26    27   ar
    13    27    28   ar
    14    28    30    1
    15    30    31    1
    16    30    32    1
    17    28    29   ar
    18     9    10   ar
    19    10    11   ar
    20    11    12   ar
    21    12    13    1
    22    13    14    1
    23    14    15    1
    24    15    16    1
    25    16    17    1
    26    14    18    1
    27    18    19    1
    28    19    20    1
    29    20    21    1
    30     6     2    1
    31    12     7   ar
    32    17    14    1
    33    21    18    1
    34    18     4    1
    35    29    24   ar
    36     1    22    1
    37     1    23    1
@<TRIPOS>MOLECULE
*****
 32 37 0 0 0
SMALL
GASTEIGER

@<TRIPOS>ATOM
      1 N         137.2505  141.7366  164.0519 N.pl3   1  UNL1       -0.3133
      2 C         138.2360  141.0129  163.1830 C.2     1  UNL1        0.2770
      3 N         139.5104  140.3689  163.6426 N.2     1  UNL1       -0.2202
      4 C         140.1821  139.7641  162.4456 C.3     1  UNL1        0.1580
      5 C         139.3228  140.0343  161.2461 C.3     1  UNL1        0.2351
      6 O         138.1201  140.8061  161.7018 O.2     1  UNL1       -0.4478
      7 C         140.9336  139.5711  163.7293 C.ar    1  UNL1        0.0357
      8 C         140.3828  140.1223  165.0110 C.ar    1  UNL1        0.0007
      9 C         141.1343  139.9293  166.2947 C.ar    1  UNL1        0.0014
     10 C         142.4366  139.1849  166.2968 C.ar    1  UNL1        0.0031
     11 C         142.9874  138.6337  165.0151 C.ar    1  UNL1        0.0366
     12 C         142.2358  138.8268  163.7313 C.ar    1  UNL1        0.1360
     13 O         142.7866  138.2755  162.4496 O.3     1  UNL1       -0.4826
     14 C         142.0352  138.4685  161.1659 C.3     1  UNL1        0.1395
     15 C         143.2631  137.6960  160.7845 C.3     1  UNL1        0.0404
     16 C         142.8141  137.6889  159.3533 C.3     1  UNL1        0.0072
     17 C         141.5861  138.4614  159.7347 C.3     1  UNL1        0.0404
     18 C         140.7329  139.2129  161.1639 C.3     1  UNL1        0.1141
     19 C         140.9425  139.1590  161.5220 C.3     1  UNL1        0.1501
     20 O         140.7222  139.2156  161.1456 O.3     1  UNL1       -0.3532
     21 C         140.9425  139.1590  161.5220 C.3     1  UNL1        0.1501
     22 H         137.4155  141.8206  165.0188 H       1  UNL1        0.1466
     23 H         136.4387  142.1277  163.6553 H       1  UNL1        0.1466
     24 C         140.5835  140.4805  167.5764 C.ar    1  UNL1        0.0190
     25 C         139.5146  139.7325  168.3166 C.ar    1  UNL1        0.0988
     26 N         138.9638  140.2837  169.5983 N.ar    1  UNL1       -0.2425
     27 C         139.4819  141.5831  170.1398 C.ar    1  UNL1        0.1000
     28 C         140.5508  142.3312  169.3996 C.ar    1  UNL1        0.0627
     29 C         141.1016  141.7799  168.1179 C.ar    1  UNL1        0.0042
     30 C         141.0689  143.6305  169.9412 C.3     1  UNL1        0.3425
     31 F         140.1694  144.8293  170.0028 F       1  UNL1       -0.1932
     32 F         142.4865  143.7311  170.4211 F       1  UNL1       -0.1932
@<TRIPOS>BOND
     1     1     2    1
     2     2     3    2
     3     3     4    1
     4     4     5    1
     5     5     6    1
     6     4     7    1
     7     7     8   ar
     8     8     9   ar
     9     9    24    1
    10    24    25   ar
    11    25    26   ar
    12    26    27   ar
    13    27    28   ar
    14    28    30    1
    15    30    31    1
    16    30    32    1
    17    28    29   ar
    18     9    10   ar
    19    10    11   ar
    20    11    12   ar
    21    12    13    1
    22    13    14    1
    23    14    15    1
    24    15    16    1
    25    16    17    1
    26    14    18    1
    27    18    19    1
    28    19    20    1
    29    20    21    1
    30     6     2    1
    31    12     7   ar
    32    17    14    1
    33    21    18    1
    34    18     4    1
    35    29    24   ar
    36     1    22    1
    37     1    23    1
@<TRIPOS>MOLECULE
*****
 32 37 0 0 0
SMALL
GASTEIGER

@<TRIPOS>ATOM
      1 N         144.4587  143.4056  165.5337 N.pl3   1  UNL1       -0.3133
      2 C         144.2676  142.7246  164.2109 C.2     1  UNL1        0.2770
      3 N         143.5446  141.4303  163.9819 N.2     1  UNL1       -0.2202
      4 C         143.5961  141.1240  162.5145 C.3     1  UNL1        0.1580
      5 C         144.3509  142.2290  161.8365 C.3     1  UNL1        0.2351
      6 O         144.7659  143.2182  162.8850 O.2     1  UNL1       -0.4478
      7 C         142.8655  140.0964  163.3269 C.ar    1  UNL1        0.0357
      8 C         142.7331  140.2692  164.8110 C.ar    1  UNL1        0.0007
      9 C         142.0025  139.2416  165.6235 C.ar    1  UNL1        0.0014
     10 C         141.4042  138.0411  164.9519 C.ar    1  UNL1        0.0031
     11 C         141.5366  137.8683  163.4677 C.ar    1  UNL1        0.0366
     12 C         142.2673  138.8960  162.6553 C.ar    1  UNL1        0.1360
     13 O         142.3997  138.7233  161.1711 O.3     1  UNL1       -0.4826
     14 C         143.1303  139.7509  160.3587 C.3     1  UNL1        0.1395
     15 C         142.6814  138.7191  159.3667 C.3     1  UNL1        0.0404
     16 C         143.3176  139.5065  158.2597 C.3     1  UNL1        0.0072
     17 C         143.7665  140.5384  159.2517 C.3     1  UNL1        0.0404
     18 C         143.7285  140.9513  161.0303 C.3     1  UNL1        0.1141
     19 C         143.5247  140.6646  161.2570 C.3     1  UNL1        0.1501
     20 O         143.7389  140.9659  161.0187 O.3     1  UNL1       -0.3532
     21 C         143.5247  140.6646  161.2570 C.3     1  UNL1        0.1501
     22 H         144.0924  143.0011  166.3531 H       1  UNL1        0.1466
     23 H         144.9504  144.2572  165.5824 H       1  UNL1        0.1466
     24 C         141.8701  139.4144  167.1076 C.ar    1  UNL1        0.0190
     25 C         142.9984  139.0171  168.0126 C.ar    1  UNL1        0.0988
     26 N         142.8660  139.1898  169.4967 N.ar    1  UNL1       -0.2425
     27 C         141.6052  139.7599  170.0759 C.ar    1  UNL1        0.1000
     28 C         140.4768  140.1573  169.1709 C.ar    1  UNL1        0.0627
     29 C         140.6092  139.9845  167.6868 C.ar    1  UNL1        0.0042
     30 C         139.2161  140.7273  169.7501 C.3     1  UNL1        0.3425
     31 F         139.1939  142.1401  170.2536 F       1  UNL1       -0.1932
     32 F         137.9775  139.8846  169.8259 F       1  UNL1       -0.1932
@<TRIPOS>BOND
     1     1     2    1
     2     2     3    2
     3     3     4    1
     4     4     5    1
     5     5     6    1
     6     4     7    1
     7     7     8   ar
     8     8     9   ar
     9     9    24    1
    10    24    25   ar
    11    25    26   ar
    12    26    27   ar
    13    27    28   ar
    14    28    30    1
    15    30    31    1
    16    30    32    1
    17    28    29   ar
    18     9    10   ar
    19    10    11   ar
    20    11    12   ar
    21    12    13    1
    22    13    14    1
    23    14    15    1
    24    15    16    1
    25    16    17    1
    26    14    18    1
    27    18    19    1
    28    19    20    1
    29    20    21    1
    30     6     2    1
    31    12     7   ar
    32    17    14    1
    33    21    18    1
    34    18     4    1
    35    29    24   ar
    36     1    22    1
    37     1    23    1
@<TRIPOS>MOLECULE
*****
 32 37 0 0 0
SMALL
GASTEIGER

@<TRIPOS>ATOM
      1 N         138.4661  138.0250  165.4838 N.pl3   1  UNL1       -0.3133
      2 C         139.1469  138.1294  164.1513 C.2     1  UNL1        0.2770
      3 N         140.5106  138.7019  163.9003 N.2     1  UNL1       -0.2202
      4 C         140.7901  138.6060  162.4298 C.3     1  UNL1        0.1580
      5 C         139.5992  137.9742  161.7719 C.3     1  UNL1        0.2351
      6 O         138.5837  137.6797  162.8358 O.2     1  UNL1       -0.4478
      7 C         141.9032  139.2233  163.2234 C.ar    1  UNL1        0.0357
      8 C         141.7656  139.3848  164.7083 C.ar    1  UNL1        0.0007
      9 C         142.8787  140.0021  165.5019 C.ar    1  UNL1        0.0014
     10 C         144.1295  140.4579  164.8106 C.ar    1  UNL1        0.0031
     11 C         144.2671  140.2964  163.3257 C.ar    1  UNL1        0.0366
     12 C         143.1539  139.6790  162.5321 C.ar    1  UNL1        0.1360
     13 O         143.2915  139.5175  161.0472 O.3     1  UNL1       -0.4826
     14 C         142.1784  138.9002  160.2536 C.3     1  UNL1        0.1395
     15 C         143.2408  139.2240  159.2453 C.3     1  UNL1        0.0404
     16 C         142.3730  138.6717  158.1535 C.3     1  UNL1        0.0072
     17 C         141.3106  138.3478  159.1618 C.3     1  UNL1        0.0404
     18 C         140.9277  138.4444  160.9449 C.3     1  UNL1        0.1141
     19 C         141.2383  138.6166  161.1662 C.3     1  UNL1        0.1501
     20 O         140.9119  138.4356  160.9335 O.3     1  UNL1       -0.3532
     21 C         141.2383  138.6166  161.1662 C.3     1  UNL1        0.1501
     22 H         138.9196  138.3498  166.2950 H       1  UNL1        0.1466
     23 H         137.5658  137.6317  165.5471 H       1  UNL1        0.1466
     24 C         142.7411  140.1637  166.9868 C.ar    1  UNL1        0.0190
     25 C         142.9491  138.9858  167.8919 C.ar    1  UNL1        0.0988
     26 N         142.8115  139.1473  169.3768 N.ar    1  UNL1       -0.2425
     27 C         142.4659  140.4868  169.9566 C.ar    1  UNL1        0.1000
     28 C         142.2579  141.6648  169.0516 C.ar    1  UNL1        0.0627
     29 C         142.3955  141.5033  167.5667 C.ar    1  UNL1        0.0042
     30 C         141.9123  143.0043  169.6314 C.3     1  UNL1        0.3425
     31 F         142.8513  143.6701  170.5932 F       1  UNL1       -0.1932
     32 F         140.6277  143.6781  169.2495 F       1  UNL1       -0.1932
@<TRIPOS>BOND
     1     1     2    1
     2     2     3    2
     3     3     4    1
     4     4     5    1
     5     5     6    1
     6     4     7    1
     7     7     8   ar
     8     8     9   ar
     9     9    24    1
    10    24    25   ar
    11    25    26   ar
    12    26    27   ar
    13    27    28   ar
    14    28    30    1
    15    30    31    1
    16    30    32    1
    17    28    29   ar
    18     9    10   ar
    19    10    11   ar
    20    11    12   ar
    21    12    13    1
    22    13    14    1
    23    14    15    1
    24    15    16    1
    25    16    17    1
    26    14    18    1
    27    18    19    1
    28    19    20    1
    29    20    21    1
    30     6     2    1
    31    12     7   ar
    32    17    14    1
    33    21    18    1
    34    18     4    1
    35    29    24   ar
    36     1    22    1
    37     1    23    1
@<TRIPOS>MOLECULE
*****
 32 37 0 0 0
SMALL
GASTEIGER

@<TRIPOS>ATOM
      1 N         137.6380  140.7597  164.0763 N.pl3   1  UNL1       -0.3133
      2 C         138.1876  141.5641  162.9358 C.2     1  UNL1        0.2770
      3 N         139.4816  142.3229  162.9349 N.2     1  UNL1       -0.2202
      4 C         139.6335  142.9786  161.5945 C.3     1  UNL1        0.1580
      5 C         138.4333  142.6252  160.7669 C.3     1  UNL1        0.2351
      6 O         137.5398  141.7509  161.5959 O.2     1  UNL1       -0.4478
      7 C         140.7695  143.2460  162.5367 C.ar    1  UNL1        0.0357
      8 C         140.7555  142.6549  163.9153 C.ar    1  UNL1        0.0007
      9 C         141.8916  142.9223  164.8575 C.ar    1  UNL1        0.0014
     10 C         143.0417  143.7808  164.4212 C.ar    1  UNL1        0.0031
     11 C         143.0557  144.3719  163.0427 C.ar    1  UNL1        0.0366
     12 C         141.9196  144.1045  162.1004 C.ar    1  UNL1        0.1360
     13 O         141.9335  144.6956  160.7219 O.3     1  UNL1       -0.4826
     14 C         140.7975  144.4282  159.7796 C.3     1  UNL1        0.1395
     15 C         141.7407  145.3058  159.0114 C.3     1  UNL1        0.0404
     16 C         140.8173  145.2642  157.8300 C.3     1  UNL1        0.0072
     17 C         139.8741  144.3865  158.5982 C.3     1  UNL1        0.0404
     18 C         139.6475  143.5697  160.2159 C.3     1  UNL1        0.1141
     19 C         139.9644  143.6443  160.4788 C.3     1  UNL1        0.1501
     20 O         139.6313  143.5659  160.2025 O.3     1  UNL1       -0.3532
     21 C         139.9644  143.6443  160.4788 C.3     1  UNL1        0.1501
     22 H         138.1397  140.6966  164.9210 H       1  UNL1        0.1466
     23 H         136.7755  140.2948  163.9802 H       1  UNL1        0.1466
     24 C         141.8776  142.3312  166.2361 C.ar    1  UNL1        0.0190
     25 C         143.0802  142.4664  167.1223 C.ar    1  UNL1        0.0988
     26 N         143.0662  141.8753  168.5009 N.ar    1  UNL1       -0.2425
     27 C         141.8496  141.1490  168.9932 C.ar    1  UNL1        0.1000
     28 C         140.6470  141.0138  168.1069 C.ar    1  UNL1        0.0627
     29 C         140.6609  141.6049  166.7284 C.ar    1  UNL1        0.0042
     30 C         139.4304  140.2874  168.5992 C.3     1  UNL1        0.3425
     31 F         138.8460  140.6253  169.9387 F       1  UNL1       -0.1932
     32 F         138.7982  139.2231  167.7520 F       1  UNL1       -0.1932
@<TRIPOS>BOND
     1     1     2    1
     2     2     3    2
     3     3     4    1
     4     4     5    1
     5     5     6    1
     6     4     7    1
     7     7     8   ar
     8     8     9   ar
     9     9    24    1
    10    24    25   ar
    11    25    26   ar
    12    26    27   ar
    13    27    28   ar
    14    28    30    1
    15    30    31    1
    16    30    32    1
    17    28    29   ar
    18     9    10   ar
    19    10    11   ar
    20    11    12   ar
    21    12    13    1
    22    13    14    1
    23    14    15    1
    24    15    16    1
    25    16    17    1
    26    14    18    1
    27    18    19    1
    28    19    20    1
    29    20    21    1
    30     6     2    1
    31    12     7   ar
    32    17    14    1
    33    21    18    1
    34    18     4    1
    35    29    24   ar
    36     1    22    1
    37     1    23    1
@<TRIPOS>MOLECULE
*****
 32 37 0 0 0
SMALL
GASTEIGER

@<TRIPOS>ATOM
      1 N         144.0583  140.4256  161.9067 N.pl3   1  UNL1       -0.3133
      2 C         143.7236  140.1899  163.3498 C.2     1  UNL1        0.2770
      3 N         142.7461  140.9801  164.1686 N.2     1  UNL1       -0.2202
      4 C         142.7259  140.4013  165.5522 C.3     1  UNL1        0.1580
      5 C         143.6908  139.2533  165.5885 C.3     1  UNL1        0.2351
      6 O         144.3074  139.1227  164.2273 O.2     1  UNL1       -0.4478
      7 C         141.8014  141.5675  165.3652 C.ar    1  UNL1        0.0357
      8 C         141.7147  142.2497  164.0321 C.ar    1  UNL1        0.0007
      9 C         140.7902  143.4160  163.8451 C.ar    1  UNL1        0.0014
     10 C         139.9521  143.9001  164.9912 C.ar    1  UNL1        0.0031
     11 C         140.0388  143.2179  166.3243 C.ar    1  UNL1        0.0366
     12 C         140.9634  142.0516  166.5113 C.ar    1  UNL1        0.1360
     13 O         141.0500  141.3694  167.8443 O.3     1  UNL1       -0.4826
     14 C         141.9746  140.2031  168.0313 C.3     1  UNL1        0.1395
     15 C         141.3163  140.3945  169.3656 C.3     1  UNL1        0.0404
     16 C         142.0971  139.2383  169.9167 C.3     1  UNL1        0.0072
     17 C         142.7555  139.0470  168.5825 C.3     1  UNL1        0.0404
     18 C         142.8126  139.7191  166.8853 C.3     1  UNL1        0.1141
     19 C         142.5546  140.0444  166.8331 C.3     1  UNL1        0.1501
     20 O         142.8257  139.7025  166.8880 O.3     1  UNL1       -0.3532
     21 C         142.5546  140.0444  166.8331 C.3     1  UNL1        0.1501
     22 H         143.6197  141.1554  161.4125 H       1  UNL1        0.1466
     23 H         144.7166  139.8505  161.4538 H       1  UNL1        0.1466
     24 C         140.7035  144.0982  162.5120 C.ar    1  UNL1        0.0190
     25 C         139.7293  145.2198  162.3054 C.ar    1  UNL1        0.0988
     26 N         139.6427  145.9020  160.9724 N.ar    1  UNL1       -0.2425
     27 C         140.5303  145.4626  159.8459 C.ar    1  UNL1        0.1000
     28 C         141.5045  144.3408  160.0524 C.ar    1  UNL1        0.0627
     29 C         141.5912  143.6586  161.3855 C.ar    1  UNL1        0.0042
     30 C         142.3921  143.9013  158.9259 C.3     1  UNL1        0.3425
     31 F         143.7061  143.2405  159.2204 F       1  UNL1       -0.1932
     32 F         141.9657  144.1227  157.5049 F       1  UNL1       -0.1932
@<TRIPOS>BOND
     1     1     2    1
     2     2     3    2
     3     3     4    1
     4     4     5    1
     5     5     6    1
     6     4     7    1
     7     7     8   ar
     8     8     9   ar
     9     9    24    1
    10    24    25   ar
    11    25    26   ar
    12    26    27   ar
    13    27    28   ar
    14    28    30    1
    15    30    31    1
    16    30    32    1
    17    28    29   ar
    18     9    10   ar
    19    10    11   ar
    20    11    12   ar
    21    12    13    1
    22    13    14    1
    23    14    15    1
    24    15    16    1
    25    16    17    1
    26    14    18    1
    27    18    19    1
    28    19    20    1
    29    20    21    1
    30     6     2    1
    31    12     7   ar
    32    17    14    1
    33    21    18    1
    34    18     4    1
    35    29    24   ar
    36     1    22    1
    37     1    23    1
@<TRIPOS>MOLECULE
*****
 32 37 0 0 0
SMALL
GASTEIGER

@<TRIPOS>ATOM
      1 N         145.2372  140.8176  164.3199 N.pl3   1  UNL1       -0.3133
      2 C         144.4506  141.6485  163.3500 C.2     1  UNL1        0.2770
      3 N         143.1631  142.3611  163.6409 N.2     1  UNL1       -0.2202
      4 C         142.7302  143.0657  162.3896 C.3     1  UNL1        0.1580
      5 C         143.7502  142.7886  161.3251 C.3     1  UNL1        0.2351
      6 O         144.8135  141.9128  161.9187 O.2     1  UNL1       -0.4478
      7 C         141.7981  143.2544  163.5495 C.ar    1  UNL1        0.0357
      8 C         142.1018  142.6080  164.8686 C.ar    1  UNL1        0.0007
      9 C         141.1697  142.7967  166.0285 C.ar    1  UNL1        0.0014
     10 C         139.9338  143.6318  165.8695 C.ar    1  UNL1        0.0031
     11 C         139.6301  144.2782  164.5504 C.ar    1  UNL1        0.0366
     12 C         140.5623  144.0895  163.3904 C.ar    1  UNL1        0.1360
     13 O         140.2586  144.7359  162.0713 O.3     1  UNL1       -0.4826
     14 C         141.1907  144.5472  160.9114 C.3     1  UNL1        0.1395
     15 C         140.0909  145.4223  160.3873 C.3     1  UNL1        0.0404
     16 C         140.7612  145.4614  159.0459 C.3     1  UNL1        0.0072
     17 C         141.8611  144.5863  159.5700 C.3     1  UNL1        0.0404
     18 C         142.4265  143.7121  161.0705 C.3     1  UNL1        0.1141
     19 C         142.1665  143.7648  161.3941 C.3     1  UNL1        0.1501
     20 O         142.4398  143.7095  161.0540 O.3     1  UNL1       -0.3532
     21 C         142.1665  143.7648  161.3941 C.3     1  UNL1        0.1501
     22 H         144.9156  140.7024  165.2433 H       1  UNL1        0.1466
     23 H         146.0750  140.3874  164.0332 H       1  UNL1        0.1466
     24 C         141.4734  142.1503  167.3476 C.ar    1  UNL1        0.0190
     25 C         142.8831  142.1153  167.8588 C.ar    1  UNL1        0.0988
     26 N         143.1868  141.4689  169.1778 N.ar    1  UNL1       -0.2425
     27 C         142.0808  140.8575  169.9857 C.ar    1  UNL1        0.1000
     28 C         140.6710  140.8924  169.4746 C.ar    1  UNL1        0.0627
     29 C         140.3673  141.5388  168.1555 C.ar    1  UNL1        0.0042
     30 C         139.5649  140.2809  170.2824 C.3     1  UNL1        0.3425
     31 F         138.1344  140.5616  169.9290 F       1  UNL1       -0.1932
     32 F         139.8893  139.3887  171.4439 F       1  UNL1       -0.1932
@<TRIPOS>BOND
     1     1     2    1
     2     2     3    2
     3     3     4    1
     4     4     5    1
     5     5     6    1
     6     4     7    1
     7     7     8   ar
     8     8     9   ar
     9     9    24    1
    10    24    25   ar
    11    25    26   ar
    12    26    27   ar
    13    27    28   ar
    14    28    30    1
    15    30    31    1
    16    30    32    1
    17    28    29   ar
    18     9    10   ar
    19    10    11   ar
    20    11    12   ar
    21    12    13    1
    22    13    14    1
    23    14    15    1
    24    15    16    1
    25    16    17    1
    26    14    18    1
    27    18    19    1
    28    19    20    1
    29    20    21    1
    30     6     2    1
    31    12     7   ar
    32    17    14    1
    33    21    18    1
    34    18     4    1
    35    29    24   ar
    36     1    22    1
    37     1    23    1
@<TRIPOS>MOLECULE
*****
 32 37 0 0 0
SMALL
GASTEIGER

@<TRIPOS>ATOM
      1 N         138.9340  137.6598  164.1460 N.pl3   1  UNL1       -0.3133
      2 C         139.1027  138.5032  165.3749 C.2     1  UNL1        0.2770
      3 N         140.2162  139.4751  165.6312 N.2     1  UNL1       -0.2202
      4 C         139.9892  140.0955  166.9778 C.3     1  UNL1        0.1580
      5 C         138.7354  139.5070  167.5538 C.3     1  UNL1        0.2351
      6 O         138.1875  138.5230  166.5631 O.2     1  UNL1       -0.4478
      7 C         141.2185  140.5925  166.2765 C.ar    1  UNL1        0.0357
      8 C         141.5743  140.0612  164.9196 C.ar    1  UNL1        0.0007
      9 C         142.8036  140.5582  164.2183 C.ar    1  UNL1        0.0014
     10 C         143.6771  141.5865  164.8738 C.ar    1  UNL1        0.0031
     11 C         143.3212  142.1178  166.2307 C.ar    1  UNL1        0.0366
     12 C         142.0919  141.6207  166.9321 C.ar    1  UNL1        0.1360
     13 O         141.7361  142.1519  168.2890 O.3     1  UNL1       -0.4826
     14 C         140.5068  141.6550  168.9903 C.3     1  UNL1        0.1395
     15 C         141.1137  142.6533  169.9311 C.3     1  UNL1        0.0404
     16 C         140.0036  142.4063  170.9093 C.3     1  UNL1        0.0072
     17 C         139.3967  141.4079  169.9684 C.3     1  UNL1        0.0404
     18 C         139.6334  140.6267  168.3347 C.3     1  UNL1        0.1141
     19 C         139.9763  140.7654  168.1391 C.3     1  UNL1        0.1501
     20 O         139.6159  140.6196  168.3447 O.3     1  UNL1       -0.3532
     21 C         139.9763  140.7654  168.1391 C.3     1  UNL1        0.1501
     22 H         139.5912  137.7174  163.4153 H       1  UNL1        0.1466
     23 H         138.1659  137.0485  164.0702 H       1  UNL1        0.1466
     24 C         143.1594  140.0270  162.8614 C.ar    1  UNL1        0.0190
     25 C         143.3014  138.5491  162.6481 C.ar    1  UNL1        0.0988
     26 N         143.6573  138.0178  161.2912 N.ar    1  UNL1       -0.2425
     27 C         143.8711  138.9645  160.1476 C.ar    1  UNL1        0.1000
     28 C         143.7291  140.4425  160.3608 C.ar    1  UNL1        0.0627
     29 C         143.3733  140.9738  161.7177 C.ar    1  UNL1        0.0042
     30 C         143.9430  141.3892  159.2171 C.3     1  UNL1        0.3425
     31 F         144.0687  140.8603  157.8191 F       1  UNL1       -0.1932
     32 F         144.0311  142.8649  159.4714 F       1  UNL1       -0.1932
@<TRIPOS>BOND
     1     1     2    1
     2     2     3    2
     3     3     4    1
     4     4     5    1
     5     5     6    1
     6     4     7    1
     7     7     8   ar
     8     8     9   ar
     9     9    24    1
    10    24    25   ar
    11    25    26   ar
    12    26    27   ar
    13    27    28   ar
    14    28    30    1
    15    30    31    1
    16    30    32    1
    17    28    29   ar
    18     9    10   ar
    19    10    11   ar
    20    11    12   ar
    21    12    13    1
    22    13    14    1
    23    14    15    1
    24    15    16    1
    25    16    17    1
    26    14    18    1
    27    18    19    1
    28    19    20    1
    29    20    21    1
    30     6     2    1
    31    12     7   ar
    32    17    14    1
    33    21    18    1
    34    18     4    1
    35    29    24   ar
    36     1    22    1
    37     1    23    1
