@<TRIPOS>MOLECULE
*****
 33 36 0 0 0
SMALL
GASTEIGER

@<TRIPOS>ATOM
      1 C         143.3614  143.9115  162.2931 C.3     1  UNL1        0.1171
      2 N         142.1308  143.3333  162.9269 N.am    1  UNL1       -0.2557
      3 C         142.1871  142.8054  164.3297 C.2     1  UNL1        0.3150
      4 O         143.4739  142.8556  165.0989 O.2     1  UNL1       -0.2516
      5 N         140.9566  142.2273  164.9634 N.am    1  UNL1       -0.2256
      6 C         139.6698  142.1771  164.1943 C.2     1  UNL1        0.0380
      7 C         139.6135  142.7051  162.7914 C.2     1  UNL1        0.0446
      8 C         138.2139  142.5233  162.2835 C.2     1  UNL1        0.1722
      9 O         137.7112  142.9133  160.9251 O.2     1  UNL1       -0.2916
     10 C         137.4052  141.8829  163.3725 C.3     1  UNL1        0.0749
     11 C         138.3049  141.6690  164.5534 C.3     1  UNL1        0.0498
     12 C         140.8440  143.2832  162.1577 C.3     1  UNL1        0.1254
     13 C         141.0129  141.6994  166.3663 C.ar    1  UNL1        0.0592
     14 C         141.6565  140.3731  166.6433 C.ar    1  UNL1        0.0153
     15 C         141.7127  139.8452  168.0463 C.ar    1  UNL1        0.0012
     16 C         141.1255  140.6435  169.1722 C.ar    1  UNL1        0.0039
     17 C         140.4819  141.9699  168.8952 C.ar    1  UNL1        0.0727
     18 C         140.4256  142.4978  167.4923 C.ar    1  UNL1        0.0191
     19 C         139.8947  142.7683  170.0211 C.3     1  UNL1        0.4186
     20 F         139.3074  143.5666  171.1470 F       1  UNL1       -0.1659
     21 F         138.9848  141.6243  170.3577 F       1  UNL1       -0.1659
     22 F         140.8045  143.9123  169.6844 F       1  UNL1       -0.1659
     23 C         140.7877  143.8112  160.7547 C.ar    1  UNL1       -0.0015
     24 C         141.2543  142.9576  159.6129 C.ar    1  UNL1       -0.0019
     25 C         141.1981  143.4855  158.2100 C.ar    1  UNL1        0.0100
     26 C         140.6754  144.8669  157.9490 C.ar    1  UNL1        0.0682
     27 C         140.2088  145.7206  159.0908 C.ar    1  UNL1        0.0082
     28 C         140.2650  145.1927  160.4937 C.ar    1  UNL1        0.0055
     29 C         139.7985  146.0463  161.6355 C.3     1  UNL1        0.1634
     30 O         140.7960  146.6329  162.5898 O.3     1  UNL1       -0.3772
     31 H         141.2271  145.9195  163.0860 H       1  UNL1        0.2109
     32 C         140.6192  145.3948  156.5461 C.1     1  UNL1        0.1004
     33 N         140.5629  145.9227  155.1431 N.1     1  UNL1       -0.1908
@<TRIPOS>BOND
     1     1     2    1
     2     2     3   am
     3     3     4    2
     4     3     5   am
     5     5    13    1
     6    13    14   ar
     7    14    15   ar
     8    15    16   ar
     9    16    17   ar
    10    17    19    1
    11    19    20    1
    12    19    21    1
    13    19    22    1
    14    17    18   ar
    15     5     6    1
    16     6     7    2
    17     7     8    1
    18     8     9    2
    19     8    10    1
    20    10    11    1
    21     7    12    1
    22    12    23    1
    23    23    24   ar
    24    24    25   ar
    25    25    26   ar
    26    26    32    1
    27    32    33    3
    28    26    27   ar
    29    27    28   ar
    30    28    29    1
    31    29    30    1
    32    12     2    1
    33    28    23   ar
    34    18    13   ar
    35    11     6    1
    36    30    31    1
@<TRIPOS>MOLECULE
*****
 33 36 0 0 0
SMALL
GASTEIGER

@<TRIPOS>ATOM
      1 C         142.0956  142.6834  162.0323 C.3     1  UNL1        0.1171
      2 N         141.5229  141.9417  163.2037 N.am    1  UNL1       -0.2557
      3 C         141.8802  142.3552  164.6006 C.2     1  UNL1        0.3150
      4 O         142.8101  143.5104  164.8262 O.2     1  UNL1       -0.2516
      5 N         141.3075  141.6136  165.7719 N.am    1  UNL1       -0.2256
      6 C         140.3777  140.4585  165.5464 C.2     1  UNL1        0.0380
      7 C         140.0204  140.0449  164.1495 C.2     1  UNL1        0.0446
      8 C         139.0850  138.8756  164.2371 C.2     1  UNL1        0.1722
      9 O         138.4771  138.1439  163.0773 O.2     1  UNL1       -0.2916
     10 C         138.8641  138.5665  165.6882 C.3     1  UNL1        0.0749
     11 C         139.6630  139.5447  166.4974 C.3     1  UNL1        0.0498
     12 C         140.5930  140.7865  162.9781 C.3     1  UNL1        0.1254
     13 C         141.6648  142.0272  167.1688 C.ar    1  UNL1        0.0592
     14 C         143.0885  141.9461  167.6341 C.ar    1  UNL1        0.0153
     15 C         143.4457  142.3597  169.0310 C.ar    1  UNL1        0.0012
     16 C         142.3793  142.8544  169.9627 C.ar    1  UNL1        0.0039
     17 C         140.9555  142.9354  169.4973 C.ar    1  UNL1        0.0727
     18 C         140.5983  142.5219  168.1005 C.ar    1  UNL1        0.0191
     19 C         139.8891  143.4300  170.4290 C.3     1  UNL1        0.4186
     20 F         138.8226  143.9247  171.3607 F       1  UNL1       -0.1659
     21 F         139.3947  142.0253  170.6089 F       1  UNL1       -0.1659
     22 F         140.3834  144.8348  170.2491 F       1  UNL1       -0.1659
     23 C         140.2358  140.3730  161.5811 C.ar    1  UNL1       -0.0015
     24 C         141.1477  139.4638  160.8118 C.ar    1  UNL1       -0.0019
     25 C         140.7905  139.0502  159.4149 C.ar    1  UNL1        0.0100
     26 C         139.5215  139.5460  158.7873 C.ar    1  UNL1        0.0682
     27 C         138.6097  140.4552  159.5566 C.ar    1  UNL1        0.0082
     28 C         138.9668  140.8687  160.9536 C.ar    1  UNL1        0.0055
     29 C         138.0550  141.7779  161.7229 C.3     1  UNL1        0.1634
     30 O         136.9111  141.2053  162.5062 O.3     1  UNL1       -0.3772
     31 H         136.2687  140.8085  161.8972 H       1  UNL1        0.2109
     32 C         139.1644  139.1324  157.3904 C.1     1  UNL1        0.1004
     33 N         138.8073  138.7188  155.9934 N.1     1  UNL1       -0.1908
@<TRIPOS>BOND
     1     1     2    1
     2     2     3   am
     3     3     4    2
     4     3     5   am
     5     5    13    1
     6    13    14   ar
     7    14    15   ar
     8    15    16   ar
     9    16    17   ar
    10    17    19    1
    11    19    20    1
    12    19    21    1
    13    19    22    1
    14    17    18   ar
    15     5     6    1
    16     6     7    2
    17     7     8    1
    18     8     9    2
    19     8    10    1
    20    10    11    1
    21     7    12    1
    22    12    23    1
    23    23    24   ar
    24    24    25   ar
    25    25    26   ar
    26    26    32    1
    27    32    33    3
    28    26    27   ar
    29    27    28   ar
    30    28    29    1
    31    29    30    1
    32    12     2    1
    33    28    23   ar
    34    18    13   ar
    35    11     6    1
    36    30    31    1
@<TRIPOS>MOLECULE
*****
 33 36 0 0 0
SMALL
GASTEIGER

@<TRIPOS>ATOM
      1 C         141.9201  140.5132  161.8502 C.3     1  UNL1        0.1171
      2 N         141.3260  141.3575  162.9385 N.am    1  UNL1       -0.2557
      3 C         141.7711  141.1724  164.3588 C.2     1  UNL1        0.3150
      4 O         142.8105  140.1431  164.6911 O.2     1  UNL1       -0.2516
      5 N         141.1770  142.0166  165.4471 N.am    1  UNL1       -0.2256
      6 C         140.1377  143.0459  165.1149 C.2     1  UNL1        0.0380
      7 C         139.6925  143.2310  163.6945 C.2     1  UNL1        0.0446
      8 C         138.6580  144.3170  163.6707 C.2     1  UNL1        0.1722
      9 O         137.9432  144.8273  162.4547 O.2     1  UNL1       -0.2916
     10 C         138.4638  144.8030  165.0764 C.3     1  UNL1        0.0749
     11 C         139.3783  144.0175  165.9690 C.3     1  UNL1        0.0498
     12 C         140.2866  142.3868  162.6063 C.3     1  UNL1        0.1254
     13 C         141.6222  141.8315  166.8675 C.ar    1  UNL1        0.0592
     14 C         142.9402  142.3874  167.3189 C.ar    1  UNL1        0.0153
     15 C         143.3853  142.2023  168.7394 C.ar    1  UNL1        0.0012
     16 C         142.5125  141.4612  169.7084 C.ar    1  UNL1        0.0039
     17 C         141.1944  140.9053  169.2569 C.ar    1  UNL1        0.0727
     18 C         140.7493  141.0904  167.8366 C.ar    1  UNL1        0.0191
     19 C         140.3216  140.1642  170.2259 C.3     1  UNL1        0.4186
     20 F         139.4488  139.4232  171.1949 F       1  UNL1       -0.1659
     21 F         139.3045  141.2642  170.1510 F       1  UNL1       -0.1659
     22 F         141.3387  139.0643  170.3008 F       1  UNL1       -0.1659
     23 C         139.8415  142.5719  161.1858 C.ar    1  UNL1       -0.0015
     24 C         140.5510  143.5520  160.2992 C.ar    1  UNL1       -0.0019
     25 C         140.1059  143.7371  158.8788 C.ar    1  UNL1        0.0100
     26 C         138.9514  142.9421  158.3450 C.ar    1  UNL1        0.0682
     27 C         138.2419  141.9620  159.2316 C.ar    1  UNL1        0.0082
     28 C         138.6869  141.7769  160.6520 C.ar    1  UNL1        0.0055
     29 C         137.9774  140.7968  161.5386 C.3     1  UNL1        0.1634
     30 O         136.9413  141.2782  162.5105 O.3     1  UNL1       -0.3772
     31 H         137.3638  141.8317  163.1858 H       1  UNL1        0.2109
     32 C         138.5063  143.1272  156.9246 C.1     1  UNL1        0.1004
     33 N         138.0611  143.3123  155.5041 N.1     1  UNL1       -0.1908
@<TRIPOS>BOND
     1     1     2    1
     2     2     3   am
     3     3     4    2
     4     3     5   am
     5     5    13    1
     6    13    14   ar
     7    14    15   ar
     8    15    16   ar
     9    16    17   ar
    10    17    19    1
    11    19    20    1
    12    19    21    1
    13    19    22    1
    14    17    18   ar
    15     5     6    1
    16     6     7    2
    17     7     8    1
    18     8     9    2
    19     8    10    1
    20    10    11    1
    21     7    12    1
    22    12    23    1
    23    23    24   ar
    24    24    25   ar
    25    25    26   ar
    26    26    32    1
    27    32    33    3
    28    26    27   ar
    29    27    28   ar
    30    28    29    1
    31    29    30    1
    32    12     2    1
    33    28    23   ar
    34    18    13   ar
    35    11     6    1
    36    30    31    1
@<TRIPOS>MOLECULE
*****
 33 36 0 0 0
SMALL
GASTEIGER

@<TRIPOS>ATOM
      1 C         139.1971  141.9480  162.1405 C.3     1  UNL1        0.1171
      2 N         140.3105  142.1873  163.1168 N.am    1  UNL1       -0.2557
      3 C         140.1876  141.6976  164.5292 C.2     1  UNL1        0.3150
      4 O         138.9514  140.9684  164.9654 O.2     1  UNL1       -0.2516
      5 N         141.3009  141.9369  165.5055 N.am    1  UNL1       -0.2256
      6 C         142.5371  142.6660  165.0694 C.2     1  UNL1        0.0380
      7 C         142.6600  143.1558  163.6569 C.2     1  UNL1        0.0446
      8 C         143.9881  143.8389  163.5170 C.2     1  UNL1        0.1722
      9 O         144.5241  144.4775  162.2701 O.2     1  UNL1       -0.2916
     10 C         144.6860  143.7713  164.8430 C.3     1  UNL1        0.0749
     11 C         143.7893  143.0464  165.8025 C.3     1  UNL1        0.0498
     12 C         141.5467  142.9165  162.6806 C.3     1  UNL1        0.1254
     13 C         141.1781  141.4471  166.9180 C.ar    1  UNL1        0.0592
     14 C         141.7380  140.1088  167.2991 C.ar    1  UNL1        0.0153
     15 C         141.6151  139.6191  168.7116 C.ar    1  UNL1        0.0012
     16 C         140.9323  140.4676  169.7429 C.ar    1  UNL1        0.0039
     17 C         140.3723  141.8060  169.3617 C.ar    1  UNL1        0.0727
     18 C         140.4952  142.2957  167.9494 C.ar    1  UNL1        0.0191
     19 C         139.6895  142.6546  170.3931 C.3     1  UNL1        0.4186
     20 F         139.0067  143.5031  171.4244 F       1  UNL1       -0.1659
     21 F         140.7982  143.6606  170.2994 F       1  UNL1       -0.1659
     22 F         138.5809  141.6485  170.4868 F       1  UNL1       -0.1659
     23 C         141.6695  143.4062  161.2681 C.ar    1  UNL1       -0.0015
     24 C         142.3509  142.5569  160.2365 C.ar    1  UNL1       -0.0019
     25 C         142.4737  143.0466  158.8240 C.ar    1  UNL1        0.0100
     26 C         141.9151  144.3856  158.4432 C.ar    1  UNL1        0.0682
     27 C         141.2337  145.2349  159.4749 C.ar    1  UNL1        0.0082
     28 C         141.1109  144.7452  160.8874 C.ar    1  UNL1        0.0055
     29 C         140.4295  145.5946  161.9190 C.3     1  UNL1        0.1634
     30 O         138.9342  145.7129  161.9244 O.3     1  UNL1       -0.3772
     31 H         138.6431  146.1699  161.1199 H       1  UNL1        0.2109
     32 C         142.0379  144.8753  157.0307 C.1     1  UNL1        0.1004
     33 N         142.1608  145.3650  155.6182 N.1     1  UNL1       -0.1908
@<TRIPOS>BOND
     1     1     2    1
     2     2     3   am
     3     3     4    2
     4     3     5   am
     5     5    13    1
     6    13    14   ar
     7    14    15   ar
     8    15    16   ar
     9    16    17   ar
    10    17    19    1
    11    19    20    1
    12    19    21    1
    13    19    22    1
    14    17    18   ar
    15     5     6    1
    16     6     7    2
    17     7     8    1
    18     8     9    2
    19     8    10    1
    20    10    11    1
    21     7    12    1
    22    12    23    1
    23    23    24   ar
    24    24    25   ar
    25    25    26   ar
    26    26    32    1
    27    32    33    3
    28    26    27   ar
    29    27    28   ar
    30    28    29    1
    31    29    30    1
    32    12     2    1
    33    28    23   ar
    34    18    13   ar
    35    11     6    1
    36    30    31    1
@<TRIPOS>MOLECULE
*****
 33 36 0 0 0
SMALL
GASTEIGER

@<TRIPOS>ATOM
      1 C         143.7532  143.4834  162.1579 C.3     1  UNL1        0.1171
      2 N         142.6724  142.9088  163.0251 N.am    1  UNL1       -0.2557
      3 C         142.9952  142.4362  164.4115 C.2     1  UNL1        0.3150
      4 O         144.3987  142.5381  164.9310 O.2     1  UNL1       -0.2516
      5 N         141.9145  141.8616  165.2786 N.am    1  UNL1       -0.2256
      6 C         140.5110  141.7597  164.7592 C.2     1  UNL1        0.0380
      7 C         140.1882  142.2323  163.3727 C.2     1  UNL1        0.0446
      8 C         138.7244  142.0069  163.1352 C.2     1  UNL1        0.1722
      9 O         137.9742  142.3357  161.8785 O.2     1  UNL1       -0.2916
     10 C         138.1425  141.3949  164.3749 C.3     1  UNL1        0.0749
     11 C         139.2466  141.2421  165.3786 C.3     1  UNL1        0.0498
     12 C         141.2688  142.8069  162.5056 C.3     1  UNL1        0.1254
     13 C         142.2373  141.3890  166.6652 C.ar    1  UNL1        0.0592
     14 C         142.1921  139.9248  166.9880 C.ar    1  UNL1        0.0153
     15 C         142.5149  139.4523  168.3746 C.ar    1  UNL1        0.0012
     16 C         142.8829  140.4438  169.4383 C.ar    1  UNL1        0.0039
     17 C         142.9281  141.9080  169.1153 C.ar    1  UNL1        0.0727
     18 C         142.6053  142.3806  167.7289 C.ar    1  UNL1        0.0191
     19 C         143.2961  142.8995  170.1790 C.3     1  UNL1        0.4186
     20 F         143.6641  143.8910  171.2427 F       1  UNL1       -0.1659
     21 F         144.7293  142.4668  170.0866 F       1  UNL1       -0.1659
     22 F         141.8629  143.3323  170.2715 F       1  UNL1       -0.1659
     23 C         140.9461  143.2795  161.1190 C.ar    1  UNL1       -0.0015
     24 C         141.1689  142.3712  159.9463 C.ar    1  UNL1       -0.0019
     25 C         140.8462  142.8438  158.5597 C.ar    1  UNL1        0.0100
     26 C         140.3008  144.2247  158.3460 C.ar    1  UNL1        0.0682
     27 C         140.0780  145.1330  159.5188 C.ar    1  UNL1        0.0082
     28 C         140.4007  144.6604  160.9053 C.ar    1  UNL1        0.0055
     29 C         140.1780  145.5687  162.0781 C.3     1  UNL1        0.1634
     30 O         141.3484  146.0719  162.8699 O.3     1  UNL1       -0.3772
     31 H         141.7781  145.3278  163.3201 H       1  UNL1        0.2109
     32 C         139.9781  144.6972  156.9594 C.1     1  UNL1        0.1004
     33 N         139.6553  145.1698  155.5729 N.1     1  UNL1       -0.1908
@<TRIPOS>BOND
     1     1     2    1
     2     2     3   am
     3     3     4    2
     4     3     5   am
     5     5    13    1
     6    13    14   ar
     7    14    15   ar
     8    15    16   ar
     9    16    17   ar
    10    17    19    1
    11    19    20    1
    12    19    21    1
    13    19    22    1
    14    17    18   ar
    15     5     6    1
    16     6     7    2
    17     7     8    1
    18     8     9    2
    19     8    10    1
    20    10    11    1
    21     7    12    1
    22    12    23    1
    23    23    24   ar
    24    24    25   ar
    25    25    26   ar
    26    26    32    1
    27    32    33    3
    28    26    27   ar
    29    27    28   ar
    30    28    29    1
    31    29    30    1
    32    12     2    1
    33    28    23   ar
    34    18    13   ar
    35    11     6    1
    36    30    31    1
@<TRIPOS>MOLECULE
*****
 33 36 0 0 0
SMALL
GASTEIGER

@<TRIPOS>ATOM
      1 C         141.4769  137.9258  163.9106 C.3     1  UNL1        0.1171
      2 N         141.3303  139.3905  164.1995 N.am    1  UNL1       -0.2557
      3 C         141.6387  139.9194  165.5688 C.2     1  UNL1        0.3150
      4 O         142.0936  138.9837  166.6494 O.2     1  UNL1       -0.2516
      5 N         141.4921  141.3840  165.8576 N.am    1  UNL1       -0.2256
      6 C         141.0371  142.3197  164.7771 C.2     1  UNL1        0.0380
      7 C         140.7288  141.7908  163.4078 C.2     1  UNL1        0.0446
      8 C         140.3032  142.9453  162.5499 C.2     1  UNL1        0.1722
      9 O         139.9026  142.8705  161.1063 O.2     1  UNL1       -0.2916
     10 C         140.3485  144.1877  163.3891 C.3     1  UNL1        0.0749
     11 C         140.8021  143.8011  164.7656 C.3     1  UNL1        0.0498
     12 C         140.8754  140.3262  163.1189 C.3     1  UNL1        0.1254
     13 C         141.8004  141.9129  167.2270 C.ar    1  UNL1        0.0592
     14 C         143.2251  142.0376  167.6796 C.ar    1  UNL1        0.0153
     15 C         143.5334  142.5665  169.0490 C.ar    1  UNL1        0.0012
     16 C         142.4171  142.9707  169.9658 C.ar    1  UNL1        0.0039
     17 C         140.9924  142.8460  169.5132 C.ar    1  UNL1        0.0727
     18 C         140.6841  142.3171  168.1439 C.ar    1  UNL1        0.0191
     19 C         139.8761  143.2502  170.4300 C.3     1  UNL1        0.4186
     20 F         138.7598  143.6544  171.3467 F       1  UNL1       -0.1659
     21 F         140.2995  144.6844  170.3132 F       1  UNL1       -0.1659
     22 F         139.4527  141.8159  170.5467 F       1  UNL1       -0.1659
     23 C         140.5670  139.7972  161.7495 C.ar    1  UNL1       -0.0015
     24 C         141.6537  139.7025  160.7199 C.ar    1  UNL1       -0.0019
     25 C         141.3455  139.1735  159.3505 C.ar    1  UNL1        0.0100
     26 C         139.9505  138.7393  159.0109 C.ar    1  UNL1        0.0682
     27 C         138.8638  138.8339  160.0405 C.ar    1  UNL1        0.0082
     28 C         139.1721  139.3629  161.4098 C.ar    1  UNL1        0.0055
     29 C         138.0854  139.4576  162.4394 C.3     1  UNL1        0.1634
     30 O         137.2302  140.6875  162.5163 O.3     1  UNL1       -0.3772
     31 H         137.7749  141.4438  162.7852 H       1  UNL1        0.2109
     32 C         139.6423  138.2103  157.6415 C.1     1  UNL1        0.1004
     33 N         139.3340  137.6814  156.2720 N.1     1  UNL1       -0.1908
@<TRIPOS>BOND
     1     1     2    1
     2     2     3   am
     3     3     4    2
     4     3     5   am
     5     5    13    1
     6    13    14   ar
     7    14    15   ar
     8    15    16   ar
     9    16    17   ar
    10    17    19    1
    11    19    20    1
    12    19    21    1
    13    19    22    1
    14    17    18   ar
    15     5     6    1
    16     6     7    2
    17     7     8    1
    18     8     9    2
    19     8    10    1
    20    10    11    1
    21     7    12    1
    22    12    23    1
    23    23    24   ar
    24    24    25   ar
    25    25    26   ar
    26    26    32    1
    27    32    33    3
    28    26    27   ar
    29    27    28   ar
    30    28    29    1
    31    29    30    1
    32    12     2    1
    33    28    23   ar
    34    18    13   ar
    35    11     6    1
    36    30    31    1
@<TRIPOS>MOLECULE
*****
 33 36 0 0 0
SMALL
GASTEIGER

@<TRIPOS>ATOM
      1 C         141.9491  142.2919  162.0146 C.3     1  UNL1        0.1171
      2 N         141.2931  141.5157  163.1180 N.am    1  UNL1       -0.2557
      3 C         141.4910  141.9292  164.5462 C.2     1  UNL1        0.3150
      4 O         142.3449  143.1189  164.8712 O.2     1  UNL1       -0.2516
      5 N         140.8351  141.1530  165.6495 N.am    1  UNL1       -0.2256
      6 C         139.9813  139.9633  165.3246 C.2     1  UNL1        0.0380
      7 C         139.7833  139.5498  163.8964 C.2     1  UNL1        0.0446
      8 C         138.8932  138.3426  163.8824 C.2     1  UNL1        0.1722
      9 O         138.4356  137.5986  162.6630 O.2     1  UNL1       -0.2916
     10 C         138.5410  138.0100  165.3021 C.3     1  UNL1        0.0749
     11 C         139.2135  139.0116  166.1934 C.3     1  UNL1        0.0498
     12 C         140.4392  140.3259  162.7931 C.3     1  UNL1        0.1254
     13 C         141.0331  141.5665  167.0777 C.ar    1  UNL1        0.0592
     14 C         140.3976  142.8254  167.5890 C.ar    1  UNL1        0.0153
     15 C         140.5957  143.2389  169.0173 C.ar    1  UNL1        0.0012
     16 C         141.4291  142.3935  169.9342 C.ar    1  UNL1        0.0039
     17 C         142.0645  141.1346  169.4229 C.ar    1  UNL1        0.0727
     18 C         141.8666  140.7211  167.9947 C.ar    1  UNL1        0.0191
     19 C         142.8979  140.2893  170.3398 C.3     1  UNL1        0.4186
     20 F         143.7313  139.4439  171.2568 F       1  UNL1       -0.1659
     21 F         141.8128  139.2541  170.3718 F       1  UNL1       -0.1659
     22 F         143.9830  141.3244  170.3078 F       1  UNL1       -0.1659
     23 C         140.2413  139.9125  161.3648 C.ar    1  UNL1       -0.0015
     24 C         141.2183  138.9803  160.7117 C.ar    1  UNL1       -0.0019
     25 C         141.0205  138.5668  159.2834 C.ar    1  UNL1        0.0100
     26 C         139.8457  139.0855  158.5084 C.ar    1  UNL1        0.0682
     27 C         138.8687  140.0177  159.1615 C.ar    1  UNL1        0.0082
     28 C         139.0665  140.4312  160.5897 C.ar    1  UNL1        0.0055
     29 C         138.0895  141.3633  161.2429 C.3     1  UNL1        0.1634
     30 O         136.9825  140.8142  162.0931 O.3     1  UNL1       -0.3772
     31 H         136.3728  140.3022  161.5390 H       1  UNL1        0.2109
     32 C         139.6479  138.6720  157.0801 C.1     1  UNL1        0.1004
     33 N         139.4501  138.2585  155.6518 N.1     1  UNL1       -0.1908
@<TRIPOS>BOND
     1     1     2    1
     2     2     3   am
     3     3     4    2
     4     3     5   am
     5     5    13    1
     6    13    14   ar
     7    14    15   ar
     8    15    16   ar
     9    16    17   ar
    10    17    19    1
    11    19    20    1
    12    19    21    1
    13    19    22    1
    14    17    18   ar
    15     5     6    1
    16     6     7    2
    17     7     8    1
    18     8     9    2
    19     8    10    1
    20    10    11    1
    21     7    12    1
    22    12    23    1
    23    23    24   ar
    24    24    25   ar
    25    25    26   ar
    26    26    32    1
    27    32    33    3
    28    26    27   ar
    29    27    28   ar
    30    28    29    1
    31    29    30    1
    32    12     2    1
    33    28    23   ar
    34    18    13   ar
    35    11     6    1
    36    30    31    1
@<TRIPOS>MOLECULE
*****
 33 36 0 0 0
SMALL
GASTEIGER

@<TRIPOS>ATOM
      1 C         138.6256  141.8113  163.1974 C.3     1  UNL1        0.1171
      2 N         140.0480  141.9269  163.6596 N.am    1  UNL1       -0.2557
      3 C         140.4159  141.5342  165.0597 C.2     1  UNL1        0.3150
      4 O         139.3615  141.0259  165.9978 O.2     1  UNL1       -0.2516
      5 N         141.8382  141.6498  165.5219 N.am    1  UNL1       -0.2256
      6 C         142.8926  142.1581  164.5839 C.2     1  UNL1        0.0380
      7 C         142.5247  142.5508  163.1837 C.2     1  UNL1        0.0446
      8 C         143.7710  143.0147  162.4897 C.2     1  UNL1        0.1722
      9 O         143.8629  143.4995  161.0732 O.2     1  UNL1       -0.2916
     10 C         144.9091  142.9087  163.4610 C.3     1  UNL1        0.0749
     11 C         144.3663  142.3793  164.7552 C.3     1  UNL1        0.0498
     12 C         141.1024  142.4352  162.7215 C.3     1  UNL1        0.1254
     13 C         142.2061  141.2570  166.9220 C.ar    1  UNL1        0.0592
     14 C         142.1706  139.8141  167.3301 C.ar    1  UNL1        0.0153
     15 C         142.5385  139.4214  168.7303 C.ar    1  UNL1        0.0012
     16 C         142.9419  140.4717  169.7224 C.ar    1  UNL1        0.0039
     17 C         142.9775  141.9147  169.3142 C.ar    1  UNL1        0.0727
     18 C         142.6096  142.3074  167.9141 C.ar    1  UNL1        0.0191
     19 C         143.3809  142.9649  170.3063 C.3     1  UNL1        0.4186
     20 F         143.7843  144.0152  171.2983 F       1  UNL1       -0.1659
     21 F         144.8035  142.4966  170.2236 F       1  UNL1       -0.1659
     22 F         141.9583  143.4333  170.3889 F       1  UNL1       -0.1659
     23 C         140.7344  142.8279  161.3214 C.ar    1  UNL1       -0.0015
     24 C         140.8899  141.8430  160.2008 C.ar    1  UNL1       -0.0019
     25 C         140.5219  142.2356  158.8007 C.ar    1  UNL1        0.0100
     26 C         139.9985  143.6132  158.5211 C.ar    1  UNL1        0.0682
     27 C         139.8430  144.5982  159.6417 C.ar    1  UNL1        0.0082
     28 C         140.2110  144.2055  161.0419 C.ar    1  UNL1        0.0055
     29 C         140.0555  145.1905  162.1624 C.3     1  UNL1        0.1634
     30 O         140.2238  146.6577  161.9000 O.3     1  UNL1       -0.3772
     31 H         141.1439  146.8383  161.6516 H       1  UNL1        0.2109
     32 C         139.6305  144.0058  157.1210 C.1     1  UNL1        0.1004
     33 N         139.2626  144.3984  155.7208 N.1     1  UNL1       -0.1908
@<TRIPOS>BOND
     1     1     2    1
     2     2     3   am
     3     3     4    2
     4     3     5   am
     5     5    13    1
     6    13    14   ar
     7    14    15   ar
     8    15    16   ar
     9    16    17   ar
    10    17    19    1
    11    19    20    1
    12    19    21    1
    13    19    22    1
    14    17    18   ar
    15     5     6    1
    16     6     7    2
    17     7     8    1
    18     8     9    2
    19     8    10    1
    20    10    11    1
    21     7    12    1
    22    12    23    1
    23    23    24   ar
    24    24    25   ar
    25    25    26   ar
    26    26    32    1
    27    32    33    3
    28    26    27   ar
    29    27    28   ar
    30    28    29    1
    31    29    30    1
    32    12     2    1
    33    28    23   ar
    34    18    13   ar
    35    11     6    1
    36    30    31    1
@<TRIPOS>MOLECULE
*****
 33 36 0 0 0
SMALL
GASTEIGER

@<TRIPOS>ATOM
      1 C         139.4467  143.2349  162.4388 C.3     1  UNL1        0.1171
      2 N         139.9029  142.0138  163.1812 N.am    1  UNL1       -0.2557
      3 C         140.0873  142.0658  164.6689 C.2     1  UNL1        0.3150
      4 O         139.8154  143.3389  165.4143 O.2     1  UNL1       -0.2516
      5 N         140.5435  140.8449  165.4112 N.am    1  UNL1       -0.2256
      6 C         140.8154  139.5719  164.6659 C.2     1  UNL1        0.0380
      7 C         140.6311  139.5199  163.1782 C.2     1  UNL1        0.0446
      8 C         140.9739  138.1344  162.7167 C.2     1  UNL1        0.1722
      9 O         140.9285  137.6400  161.3013 O.2     1  UNL1       -0.2916
     10 C         141.3701  137.3302  163.9193 C.3     1  UNL1        0.0749
     11 C         141.2722  138.2186  165.1240 C.3     1  UNL1        0.0498
     12 C         140.1748  140.7408  162.4358 C.3     1  UNL1        0.1254
     13 C         140.7278  140.8969  166.8990 C.ar    1  UNL1        0.0592
     14 C         139.6781  140.3254  167.8052 C.ar    1  UNL1        0.0153
     15 C         139.8625  140.3775  169.2930 C.ar    1  UNL1        0.0012
     16 C         141.0966  141.0011  169.8744 C.ar    1  UNL1        0.0039
     17 C         142.1464  141.5726  168.9681 C.ar    1  UNL1        0.0727
     18 C         141.9620  141.5206  167.4805 C.ar    1  UNL1        0.0191
     19 C         143.3805  142.1962  169.5495 C.3     1  UNL1        0.4186
     20 F         144.6146  142.8198  170.1310 F       1  UNL1       -0.1659
     21 F         142.9097  141.8418  170.9289 F       1  UNL1       -0.1659
     22 F         143.8513  142.5507  168.1702 F       1  UNL1       -0.1659
     23 C         139.9905  140.6889  160.9480 C.ar    1  UNL1       -0.0015
     24 C         141.1106  141.0993  160.0388 C.ar    1  UNL1       -0.0019
     25 C         140.9263  141.0474  158.5510 C.ar    1  UNL1        0.0100
     26 C         139.6219  140.5850  157.9727 C.ar    1  UNL1        0.0682
     27 C         138.5017  140.1745  158.8819 C.ar    1  UNL1        0.0082
     28 C         138.6860  140.2264  160.3697 C.ar    1  UNL1        0.0055
     29 C         137.5659  139.8160  161.2789 C.3     1  UNL1        0.1634
     30 O         136.8446  140.8484  162.0937 O.3     1  UNL1       -0.3772
     31 H         137.4531  141.2278  162.7468 H       1  UNL1        0.2109
     32 C         139.4376  140.5331  156.4849 C.1     1  UNL1        0.1004
     33 N         139.2534  140.4813  154.9971 N.1     1  UNL1       -0.1908
@<TRIPOS>BOND
     1     1     2    1
     2     2     3   am
     3     3     4    2
     4     3     5   am
     5     5    13    1
     6    13    14   ar
     7    14    15   ar
     8    15    16   ar
     9    16    17   ar
    10    17    19    1
    11    19    20    1
    12    19    21    1
    13    19    22    1
    14    17    18   ar
    15     5     6    1
    16     6     7    2
    17     7     8    1
    18     8     9    2
    19     8    10    1
    20    10    11    1
    21     7    12    1
    22    12    23    1
    23    23    24   ar
    24    24    25   ar
    25    25    26   ar
    26    26    32    1
    27    32    33    3
    28    26    27   ar
    29    27    28   ar
    30    28    29    1
    31    29    30    1
    32    12     2    1
    33    28    23   ar
    34    18    13   ar
    35    11     6    1
    36    30    31    1
