@<TRIPOS>MOLECULE
*****
 36 39 0 0 0
SMALL
GASTEIGER

@<TRIPOS>ATOM
      1 N         141.6798  145.4306  159.7818 N.pl3   1  UNL1       -0.2780
      2 H         142.5455  145.8676  159.9517 H       1  UNL1        0.1555
      3 C         142.8330  145.0919  154.7266 C.3     1  UNL1        0.0738
      4 C         141.9111  144.7932  155.8715 C.ar    1  UNL1        0.1424
      5 N         142.2564  145.2613  157.2542 N.ar    1  UNL1       -0.2158
      6 C         141.3345  144.9626  158.3991 C.ar    1  UNL1        0.1377
      7 C         140.0674  144.1958  158.1615 C.ar    1  UNL1        0.0687
      8 C         139.7222  143.7278  156.7789 C.ar    1  UNL1        0.1359
      9 N         140.6440  144.0265  155.6339 N.ar    1  UNL1       -0.2159
     10 N         138.4550  142.9610  156.5411 N.pl3   1  UNL1       -0.2903
     11 C         138.1549  141.7375  157.3552 C.3     1  UNL1        0.1095
     12 C         136.8877  140.9707  157.1175 C.3     1  UNL1        0.0939
     13 N         135.9207  141.4275  156.0657 N.3     1  UNL1       -0.2677
     14 C         136.2209  142.6512  155.2516 C.3     1  UNL1        0.0939
     15 C         137.4880  143.4179  155.4894 C.3     1  UNL1        0.1095
     16 C         134.6536  140.6608  155.8280 C.3     1  UNL1        0.1043
     17 C         133.6619  141.1473  154.8132 C.3     1  UNL1        0.1544
     18 O         132.1914  141.0334  155.0871 O.3     1  UNL1       -0.3805
     19 H         131.9408  140.0970  155.1230 H       1  UNL1        0.2105
     20 C         140.7061  145.2329  160.9056 C.ar    1  UNL1        0.1648
     21 N         139.6298  146.1925  161.3188 N.ar    1  UNL1       -0.2223
     22 C         138.8962  145.5935  162.4820 C.ar    1  UNL1        0.1119
     23 C         139.5192  144.2637  162.7877 C.ar    1  UNL1        0.1047
     24 S         140.6377  144.0408  161.8135 S.2     1  UNL1       -0.0468
     25 C         139.0976  143.3220  163.8766 C.2     1  UNL1        0.2572
     26 O         137.8352  143.5803  164.6443 O.2     1  UNL1       -0.2692
     27 N         139.9385  142.1221  164.1977 N.am    1  UNL1       -0.2795
     28 H         140.7671  141.9526  163.6937 H       1  UNL1        0.1552
     29 C         139.5169  141.1804  165.2865 C.ar    1  UNL1        0.0572
     30 C         140.0597  141.3480  166.6747 C.ar    1  UNL1       -0.0075
     31 C         141.0240  142.4572  166.9743 C.3     1  UNL1        0.0324
     32 C         139.6380  140.4063  167.7635 C.ar    1  UNL1       -0.0030
     33 C         138.6737  139.2971  167.4641 C.ar    1  UNL1        0.0006
     34 C         138.1310  139.1295  166.0758 C.ar    1  UNL1        0.0126
     35 C         138.5526  140.0712  164.9870 C.ar    1  UNL1        0.0708
     36 CL        138.0098  139.9037  163.5987 Cl      1  UNL1       -0.0810
@<TRIPOS>BOND
     1     3     4    1
     2     4     5   ar
     3     5     6   ar
     4     6     1    1
     5     1    20    1
     6    20    21   ar
     7    21    22   ar
     8    22    23   ar
     9    23    25    1
    10    25    26    2
    11    25    27   am
    12    27    29    1
    13    29    30   ar
    14    30    31    1
    15    30    32   ar
    16    32    33   ar
    17    33    34   ar
    18    34    35   ar
    19    35    36    1
    20    23    24   ar
    21     6     7   ar
    22     7     8   ar
    23     8    10    1
    24    10    11    1
    25    11    12    1
    26    12    13    1
    27    13    16    1
    28    16    17    1
    29    17    18    1
    30    13    14    1
    31    14    15    1
    32     8     9   ar
    33     9     4   ar
    34    24    20   ar
    35    15    10    1
    36    35    29   ar
    37     1     2    1
    38    27    28    1
    39    18    19    1
@<TRIPOS>MOLECULE
*****
 36 39 0 0 0
SMALL
GASTEIGER

@<TRIPOS>ATOM
      1 N         143.2551  138.4507  157.9953 N.pl3   1  UNL1       -0.2780
      2 H         143.9712  138.9902  157.5886 H       1  UNL1        0.1555
      3 C         139.0418  137.0817  155.2797 C.3     1  UNL1        0.0738
      4 C         140.4070  136.7582  155.8103 C.ar    1  UNL1        0.1424
      5 N         141.1485  137.7662  156.6374 N.ar    1  UNL1       -0.2158
      6 C         142.5136  137.4426  157.1681 C.ar    1  UNL1        0.1377
      7 C         143.1374  136.1111  156.8717 C.ar    1  UNL1        0.0687
      8 C         142.3959  135.1031  156.0446 C.ar    1  UNL1        0.1359
      9 N         141.0307  135.4266  155.5139 N.ar    1  UNL1       -0.2159
     10 N         143.0196  133.7715  155.7481 N.pl3   1  UNL1       -0.2903
     11 C         144.0733  133.2170  156.6604 C.3     1  UNL1        0.1095
     12 C         144.6970  131.8854  156.3640 C.3     1  UNL1        0.0939
     13 N         144.2670  131.1083  155.1552 N.3     1  UNL1       -0.2677
     14 C         143.2133  131.6628  154.2428 C.3     1  UNL1        0.0939
     15 C         142.5896  132.9944  154.5393 C.3     1  UNL1        0.1095
     16 C         144.8906  129.7767  154.8587 C.3     1  UNL1        0.1043
     17 C         144.7895  129.1912  153.4814 C.3     1  UNL1        0.1544
     18 O         146.0156  129.0713  152.6255 O.3     1  UNL1       -0.3805
     19 H         146.3417  129.9571  152.4018 H       1  UNL1        0.2105
     20 C         142.9054  138.6368  159.4420 C.ar    1  UNL1        0.1648
     21 N         143.2422  137.6938  160.5589 N.ar    1  UNL1       -0.2223
     22 C         142.7025  138.2727  161.8331 C.ar    1  UNL1        0.1119
     23 C         142.0322  139.5735  161.5037 C.ar    1  UNL1        0.1047
     24 S         142.1576  139.7985  160.0260 S.2     1  UNL1       -0.0468
     25 C         141.3553  140.4887  162.4806 C.2     1  UNL1        0.2572
     26 O         141.5595  140.2962  163.9541 O.2     1  UNL1       -0.2692
     27 N         140.4741  141.5964  161.9840 N.am    1  UNL1       -0.2795
     28 H         140.3401  141.7227  161.0169 H       1  UNL1        0.1552
     29 C         139.7972  142.5115  162.9608 C.ar    1  UNL1        0.0572
     30 C         138.4152  142.1957  163.4506 C.ar    1  UNL1       -0.0075
     31 C         137.7098  140.9647  162.9637 C.3     1  UNL1        0.0324
     32 C         137.7383  143.1109  164.4276 C.ar    1  UNL1       -0.0030
     33 C         138.4435  144.3420  164.9146 C.ar    1  UNL1        0.0006
     34 C         139.8256  144.6578  164.4247 C.ar    1  UNL1        0.0126
     35 C         140.5024  143.7426  163.4478 C.ar    1  UNL1        0.0708
     36 CL        141.8846  144.0584  162.9580 Cl      1  UNL1       -0.0810
@<TRIPOS>BOND
     1     3     4    1
     2     4     5   ar
     3     5     6   ar
     4     6     1    1
     5     1    20    1
     6    20    21   ar
     7    21    22   ar
     8    22    23   ar
     9    23    25    1
    10    25    26    2
    11    25    27   am
    12    27    29    1
    13    29    30   ar
    14    30    31    1
    15    30    32   ar
    16    32    33   ar
    17    33    34   ar
    18    34    35   ar
    19    35    36    1
    20    23    24   ar
    21     6     7   ar
    22     7     8   ar
    23     8    10    1
    24    10    11    1
    25    11    12    1
    26    12    13    1
    27    13    16    1
    28    16    17    1
    29    17    18    1
    30    13    14    1
    31    14    15    1
    32     8     9   ar
    33     9     4   ar
    34    24    20   ar
    35    15    10    1
    36    35    29   ar
    37     1     2    1
    38    27    28    1
    39    18    19    1
@<TRIPOS>MOLECULE
*****
 36 39 0 0 0
SMALL
GASTEIGER

@<TRIPOS>ATOM
      1 N         142.9724  137.9448  158.4824 N.pl3   1  UNL1       -0.2780
      2 H         143.9107  138.2353  158.4148 H       1  UNL1        0.1555
      3 C         139.3773  137.0365  154.8423 C.3     1  UNL1        0.0738
      4 C         140.5888  136.5969  155.6098 C.ar    1  UNL1        0.1424
      5 N         141.1749  137.4906  156.6623 N.ar    1  UNL1       -0.2158
      6 C         142.3864  137.0510  157.4298 C.ar    1  UNL1        0.1377
      7 C         143.0118  135.7178  157.1448 C.ar    1  UNL1        0.0687
      8 C         142.4257  134.8241  156.0923 C.ar    1  UNL1        0.1359
      9 N         141.2142  135.2637  155.3248 N.ar    1  UNL1       -0.2159
     10 N         143.0512  133.4908  155.8072 N.pl3   1  UNL1       -0.2903
     11 C         144.2801  133.0638  156.5538 C.3     1  UNL1        0.1095
     12 C         144.9055  131.7305  156.2687 C.3     1  UNL1        0.0939
     13 N         144.3019  130.8242  155.2370 N.3     1  UNL1       -0.2677
     14 C         143.0730  131.2513  154.4904 C.3     1  UNL1        0.0939
     15 C         142.4476  132.5845  154.7755 C.3     1  UNL1        0.1095
     16 C         144.9273  129.4910  154.9519 C.3     1  UNL1        0.1043
     17 C         144.8745  128.9188  153.5664 C.3     1  UNL1        0.1544
     18 O         146.0506  129.0692  152.6475 O.3     1  UNL1       -0.3805
     19 H         146.1742  130.0066  152.4313 H       1  UNL1        0.2105
     20 C         142.1290  138.3957  159.6379 C.ar    1  UNL1        0.1648
     21 N         140.6356  138.5358  159.6377 N.ar    1  UNL1       -0.2223
     22 C         140.2144  139.0124  160.9962 C.ar    1  UNL1        0.1119
     23 C         141.4476  139.1670  161.8360 C.ar    1  UNL1        0.1047
     24 S         142.6309  138.7858  160.9965 S.2     1  UNL1       -0.0468
     25 C         141.4902  139.6227  163.2645 C.2     1  UNL1        0.2572
     26 O         141.8980  141.0286  163.5913 O.2     1  UNL1       -0.2692
     27 N         141.1249  138.6723  164.3661 N.am    1  UNL1       -0.2795
     28 H         140.8572  137.7495  164.1515 H       1  UNL1        0.1552
     29 C         141.1674  139.1280  165.7946 C.ar    1  UNL1        0.0572
     30 C         139.9184  139.6233  166.4613 C.ar    1  UNL1       -0.0075
     31 C         138.6268  139.6630  165.6996 C.3     1  UNL1        0.0324
     32 C         139.9610  140.0790  167.8898 C.ar    1  UNL1       -0.0030
     33 C         141.2526  140.0393  168.6515 C.ar    1  UNL1        0.0006
     34 C         142.5016  139.5440  167.9848 C.ar    1  UNL1        0.0126
     35 C         142.4590  139.0884  166.5563 C.ar    1  UNL1        0.0708
     36 CL        143.7080  138.5930  165.8895 Cl      1  UNL1       -0.0810
@<TRIPOS>BOND
     1     3     4    1
     2     4     5   ar
     3     5     6   ar
     4     6     1    1
     5     1    20    1
     6    20    21   ar
     7    21    22   ar
     8    22    23   ar
     9    23    25    1
    10    25    26    2
    11    25    27   am
    12    27    29    1
    13    29    30   ar
    14    30    31    1
    15    30    32   ar
    16    32    33   ar
    17    33    34   ar
    18    34    35   ar
    19    35    36    1
    20    23    24   ar
    21     6     7   ar
    22     7     8   ar
    23     8    10    1
    24    10    11    1
    25    11    12    1
    26    12    13    1
    27    13    16    1
    28    16    17    1
    29    17    18    1
    30    13    14    1
    31    14    15    1
    32     8     9   ar
    33     9     4   ar
    34    24    20   ar
    35    15    10    1
    36    35    29   ar
    37     1     2    1
    38    27    28    1
    39    18    19    1
@<TRIPOS>MOLECULE
*****
 36 39 0 0 0
SMALL
GASTEIGER

@<TRIPOS>ATOM
      1 N         143.3103  139.1434  158.0670 N.pl3   1  UNL1       -0.2780
      2 H         143.8602  139.8216  157.6122 H       1  UNL1        0.1555
      3 C         139.4092  138.0328  154.8192 C.3     1  UNL1        0.0738
      4 C         140.5847  137.5877  155.6377 C.ar    1  UNL1        0.1424
      5 N         141.3597  138.5880  156.4431 N.ar    1  UNL1       -0.2158
      6 C         142.5353  138.1429  157.2616 C.ar    1  UNL1        0.1377
      7 C         142.9358  136.6975  157.2748 C.ar    1  UNL1        0.0687
      8 C         142.1608  135.6972  156.4694 C.ar    1  UNL1        0.1359
      9 N         140.9852  136.1423  155.6509 N.ar    1  UNL1       -0.2159
     10 N         142.5613  134.2516  156.4826 N.pl3   1  UNL1       -0.2903
     11 C         143.7198  133.8020  157.3226 C.3     1  UNL1        0.1095
     12 C         144.1203  132.3564  157.3357 C.3     1  UNL1        0.0939
     13 N         143.3623  131.3606  156.5088 N.3     1  UNL1       -0.2677
     14 C         142.2037  131.8103  155.6688 C.3     1  UNL1        0.0939
     15 C         141.8033  133.2558  155.6557 C.3     1  UNL1        0.1095
     16 C         143.7627  129.9152  156.5219 C.3     1  UNL1        0.1043
     17 C         143.2666  129.0093  157.6097 C.3     1  UNL1        0.1544
     18 O         143.4947  129.3696  159.0479 O.3     1  UNL1       -0.3805
     19 H         144.4453  129.3481  159.2398 H       1  UNL1        0.2105
     20 C         143.2474  139.1104  159.5653 C.ar    1  UNL1        0.1648
     21 N         144.3269  138.6169  160.4824 N.ar    1  UNL1       -0.2223
     22 C         143.8406  138.7666  161.8935 C.ar    1  UNL1        0.1119
     23 C         142.4606  139.3527  161.8485 C.ar    1  UNL1        0.1047
     24 S         142.0940  139.5652  160.4096 S.2     1  UNL1       -0.0468
     25 C         141.5986  139.6706  163.0342 C.2     1  UNL1        0.2572
     26 O         140.7738  140.9234  163.0474 O.2     1  UNL1       -0.2692
     27 N         141.5613  138.7356  164.2066 N.am    1  UNL1       -0.2795
     28 H         142.1027  137.9134  164.1978 H       1  UNL1        0.1552
     29 C         140.6993  139.0535  165.3922 C.ar    1  UNL1        0.0572
     30 C         139.2793  138.5725  165.4375 C.ar    1  UNL1       -0.0075
     31 C         138.7211  137.7737  164.2972 C.3     1  UNL1        0.0324
     32 C         138.4172  138.8904  166.6233 C.ar    1  UNL1       -0.0030
     33 C         138.9752  139.6893  167.7637 C.ar    1  UNL1        0.0006
     34 C         140.3953  140.1703  167.7183 C.ar    1  UNL1        0.0126
     35 C         141.2573  139.8523  166.5326 C.ar    1  UNL1        0.0708
     36 CL        142.6774  140.3333  166.4873 Cl      1  UNL1       -0.0810
@<TRIPOS>BOND
     1     3     4    1
     2     4     5   ar
     3     5     6   ar
     4     6     1    1
     5     1    20    1
     6    20    21   ar
     7    21    22   ar
     8    22    23   ar
     9    23    25    1
    10    25    26    2
    11    25    27   am
    12    27    29    1
    13    29    30   ar
    14    30    31    1
    15    30    32   ar
    16    32    33   ar
    17    33    34   ar
    18    34    35   ar
    19    35    36    1
    20    23    24   ar
    21     6     7   ar
    22     7     8   ar
    23     8    10    1
    24    10    11    1
    25    11    12    1
    26    12    13    1
    27    13    16    1
    28    16    17    1
    29    17    18    1
    30    13    14    1
    31    14    15    1
    32     8     9   ar
    33     9     4   ar
    34    24    20   ar
    35    15    10    1
    36    35    29   ar
    37     1     2    1
    38    27    28    1
    39    18    19    1
@<TRIPOS>MOLECULE
*****
 36 39 0 0 0
SMALL
GASTEIGER

@<TRIPOS>ATOM
      1 N         143.3493  138.8290  157.5989 N.pl3   1  UNL1       -0.2780
      2 H         143.9981  139.3603  157.0831 H       1  UNL1        0.1555
      3 C         139.4632  137.0534  154.6415 C.3     1  UNL1        0.0738
      4 C         140.6876  136.7968  155.4692 C.ar    1  UNL1        0.1424
      5 N         141.4063  137.9412  156.1202 N.ar    1  UNL1       -0.2158
      6 C         142.6307  137.6845  156.9479 C.ar    1  UNL1        0.1377
      7 C         143.1364  136.2835  157.1245 C.ar    1  UNL1        0.0687
      8 C         142.4178  135.1391  156.4734 C.ar    1  UNL1        0.1359
      9 N         141.1934  135.3957  155.6458 N.ar    1  UNL1       -0.2159
     10 N         142.9236  133.7380  156.6500 N.pl3   1  UNL1       -0.2903
     11 C         144.1297  133.4779  157.5029 C.3     1  UNL1        0.1095
     12 C         144.6354  132.0767  157.6795 C.3     1  UNL1        0.0939
     13 N         143.9350  130.9357  157.0031 N.3     1  UNL1       -0.2677
     14 C         142.7288  131.1959  156.1501 C.3     1  UNL1        0.0939
     15 C         142.2231  132.5970  155.9735 C.3     1  UNL1        0.1095
     16 C         144.4407  129.5347  157.1796 C.3     1  UNL1        0.1043
     17 C         144.5140  128.9310  158.5508 C.3     1  UNL1        0.1544
     18 O         143.3450  129.0447  159.4838 O.3     1  UNL1       -0.3805
     19 H         143.2116  129.9752  159.7231 H       1  UNL1        0.2105
     20 C         143.0794  139.1640  159.0359 C.ar    1  UNL1        0.1648
     21 N         143.9344  138.7788  160.2067 N.ar    1  UNL1       -0.2223
     22 C         143.2906  139.3197  161.4488 C.ar    1  UNL1        0.1119
     23 C         142.0376  140.0392  161.0458 C.ar    1  UNL1        0.1047
     24 S         141.9071  139.9429  159.5545 S.2     1  UNL1       -0.0468
     25 C         141.0827  140.7330  161.9714 C.2     1  UNL1        0.2572
     26 O         140.1977  139.9287  162.8768 O.2     1  UNL1       -0.2692
     27 N         141.0129  142.2313  161.9916 N.am    1  UNL1       -0.2795
     28 H         141.5937  142.7592  161.3974 H       1  UNL1        0.1552
     29 C         140.0580  142.9252  162.9172 C.ar    1  UNL1        0.0572
     30 C         140.5247  143.3920  164.2641 C.ar    1  UNL1       -0.0075
     31 C         141.9463  143.1649  164.6856 C.3     1  UNL1        0.0324
     32 C         139.5698  144.0859  165.1898 C.ar    1  UNL1       -0.0030
     33 C         138.1482  144.3129  164.7684 C.ar    1  UNL1        0.0006
     34 C         137.6815  143.8461  163.4214 C.ar    1  UNL1        0.0126
     35 C         138.6365  143.1523  162.4959 C.ar    1  UNL1        0.0708
     36 CL        138.1697  142.6854  161.1489 Cl      1  UNL1       -0.0810
@<TRIPOS>BOND
     1     3     4    1
     2     4     5   ar
     3     5     6   ar
     4     6     1    1
     5     1    20    1
     6    20    21   ar
     7    21    22   ar
     8    22    23   ar
     9    23    25    1
    10    25    26    2
    11    25    27   am
    12    27    29    1
    13    29    30   ar
    14    30    31    1
    15    30    32   ar
    16    32    33   ar
    17    33    34   ar
    18    34    35   ar
    19    35    36    1
    20    23    24   ar
    21     6     7   ar
    22     7     8   ar
    23     8    10    1
    24    10    11    1
    25    11    12    1
    26    12    13    1
    27    13    16    1
    28    16    17    1
    29    17    18    1
    30    13    14    1
    31    14    15    1
    32     8     9   ar
    33     9     4   ar
    34    24    20   ar
    35    15    10    1
    36    35    29   ar
    37     1     2    1
    38    27    28    1
    39    18    19    1
@<TRIPOS>MOLECULE
*****
 36 39 0 0 0
SMALL
GASTEIGER

@<TRIPOS>ATOM
      1 N         142.2857  140.4866  160.9149 N.pl3   1  UNL1       -0.2780
      2 H         142.9312  141.1723  161.2019 H       1  UNL1        0.1555
      3 C         137.7225  138.1728  161.8221 C.3     1  UNL1        0.0738
      4 C         138.9778  138.8149  162.3338 C.ar    1  UNL1        0.1424
      5 N         140.0041  139.3297  161.3686 N.ar    1  UNL1       -0.2158
      6 C         141.2594  139.9718  161.8802 C.ar    1  UNL1        0.1377
      7 C         141.4885  140.0991  163.3571 C.ar    1  UNL1        0.0687
      8 C         140.4623  139.5843  164.3224 C.ar    1  UNL1        0.1359
      9 N         139.2069  138.9422  163.8107 N.ar    1  UNL1       -0.2159
     10 N         140.6913  139.7116  165.7993 N.pl3   1  UNL1       -0.2903
     11 C         139.5436  140.0282  166.7118 C.3     1  UNL1        0.1095
     12 C         139.7727  140.1555  168.1887 C.3     1  UNL1        0.0939
     13 N         141.1494  139.9662  168.7532 N.3     1  UNL1       -0.2677
     14 C         142.2972  139.6497  167.8407 C.3     1  UNL1        0.0939
     15 C         142.0681  139.5224  166.3638 C.3     1  UNL1        0.1095
     16 C         141.3785  140.0935  170.2301 C.3     1  UNL1        0.1043
     17 C         141.0367  141.3729  170.9345 C.3     1  UNL1        0.1544
     18 O         142.0240  141.9982  171.8750 O.3     1  UNL1       -0.3805
     19 H         142.1506  141.4190  172.6428 H       1  UNL1        0.2105
     20 C         142.3285  139.9567  159.5123 C.ar    1  UNL1        0.1648
     21 N         141.9590  140.7146  158.2717 N.ar    1  UNL1       -0.2223
     22 C         142.1503  139.8021  157.0967 C.ar    1  UNL1        0.1119
     23 C         142.6381  138.4802  157.6110 C.ar    1  UNL1        0.1047
     24 S         142.7482  138.5757  159.1039 S.2     1  UNL1       -0.0468
     25 C         142.9594  137.2744  156.7786 C.2     1  UNL1        0.2572
     26 O         144.2442  137.2167  156.0067 O.2     1  UNL1       -0.2692
     27 N         141.9959  136.1263  156.7182 N.am    1  UNL1       -0.2795
     28 H         141.1526  136.1642  157.2249 H       1  UNL1        0.1552
     29 C         142.3172  134.9206  155.8858 C.ar    1  UNL1        0.0572
     30 C         141.8065  134.8228  154.4789 C.ar    1  UNL1       -0.0075
     31 C         140.9745  135.9307  153.9042 C.3     1  UNL1        0.0324
     32 C         142.1278  133.6169  153.6466 C.ar    1  UNL1       -0.0030
     33 C         142.9598  132.5090  154.2212 C.ar    1  UNL1        0.0006
     34 C         143.4706  132.6068  155.6282 C.ar    1  UNL1        0.0126
     35 C         143.1492  133.8126  156.4605 C.ar    1  UNL1        0.0708
     36 CL        143.6599  133.9105  157.8675 Cl      1  UNL1       -0.0810
@<TRIPOS>BOND
     1     3     4    1
     2     4     5   ar
     3     5     6   ar
     4     6     1    1
     5     1    20    1
     6    20    21   ar
     7    21    22   ar
     8    22    23   ar
     9    23    25    1
    10    25    26    2
    11    25    27   am
    12    27    29    1
    13    29    30   ar
    14    30    31    1
    15    30    32   ar
    16    32    33   ar
    17    33    34   ar
    18    34    35   ar
    19    35    36    1
    20    23    24   ar
    21     6     7   ar
    22     7     8   ar
    23     8    10    1
    24    10    11    1
    25    11    12    1
    26    12    13    1
    27    13    16    1
    28    16    17    1
    29    17    18    1
    30    13    14    1
    31    14    15    1
    32     8     9   ar
    33     9     4   ar
    34    24    20   ar
    35    15    10    1
    36    35    29   ar
    37     1     2    1
    38    27    28    1
    39    18    19    1
@<TRIPOS>MOLECULE
*****
 36 39 0 0 0
SMALL
GASTEIGER

@<TRIPOS>ATOM
      1 N         141.5178  145.4705  158.7823 N.pl3   1  UNL1       -0.2780
      2 H         142.4658  145.7077  158.6629 H       1  UNL1        0.1555
      3 C         139.7523  147.7940  154.4829 C.3     1  UNL1        0.0738
      4 C         139.7025  146.6552  155.4579 C.ar    1  UNL1        0.1424
      5 N         140.6350  146.6323  156.6326 N.ar    1  UNL1       -0.2158
      6 C         140.5852  145.4935  157.6076 C.ar    1  UNL1        0.1377
      7 C         139.6029  144.3776  157.4080 C.ar    1  UNL1        0.0687
      8 C         138.6704  144.4006  156.2333 C.ar    1  UNL1        0.1359
      9 N         138.7202  145.5394  155.2583 N.ar    1  UNL1       -0.2159
     10 N         137.6880  143.2847  156.0336 N.pl3   1  UNL1       -0.2903
     11 C         137.5956  142.1775  157.0414 C.3     1  UNL1        0.1095
     12 C         136.6132  141.0616  156.8417 C.3     1  UNL1        0.0939
     13 N         135.7232  141.0530  155.6342 N.3     1  UNL1       -0.2677
     14 C         135.8157  142.1603  154.6264 C.3     1  UNL1        0.0939
     15 C         136.7980  143.2761  154.8262 C.3     1  UNL1        0.1095
     16 C         134.7409  139.9372  155.4345 C.3     1  UNL1        0.1043
     17 C         133.5851  139.7779  156.3772 C.3     1  UNL1        0.1544
     18 O         133.7921  139.1321  157.7152 O.3     1  UNL1       -0.3805
     19 H         134.0299  138.2000  157.5910 H       1  UNL1        0.2105
     20 C         141.0059  145.0862  160.1389 C.ar    1  UNL1        0.1648
     21 N         140.2552  145.9778  161.0831 N.ar    1  UNL1       -0.2223
     22 C         139.9402  145.1855  162.3172 C.ar    1  UNL1        0.1119
     23 C         140.4961  143.8042  162.1357 C.ar    1  UNL1        0.1047
     24 S         141.1548  143.7429  160.7894 S.2     1  UNL1       -0.0468
     25 C         140.4088  142.6814  163.1264 C.2     1  UNL1        0.2572
     26 O         141.4147  141.5692  163.0902 O.2     1  UNL1       -0.2692
     27 N         139.3156  142.6707  164.1535 N.am    1  UNL1       -0.2795
     28 H         138.6554  143.4006  164.1773 H       1  UNL1        0.1552
     29 C         139.2283  141.5478  165.1443 C.ar    1  UNL1        0.0572
     30 C         138.4327  140.3191  164.8171 C.ar    1  UNL1       -0.0075
     31 C         137.7244  140.2130  163.4991 C.3     1  UNL1        0.0324
     32 C         138.3454  139.1962  165.8079 C.ar    1  UNL1       -0.0030
     33 C         139.0537  139.3022  167.1259 C.ar    1  UNL1        0.0006
     34 C         139.8494  140.5310  167.4531 C.ar    1  UNL1        0.0126
     35 C         139.9366  141.6538  166.4622 C.ar    1  UNL1        0.0708
     36 CL        140.7322  142.8826  166.7894 Cl      1  UNL1       -0.0810
@<TRIPOS>BOND
     1     3     4    1
     2     4     5   ar
     3     5     6   ar
     4     6     1    1
     5     1    20    1
     6    20    21   ar
     7    21    22   ar
     8    22    23   ar
     9    23    25    1
    10    25    26    2
    11    25    27   am
    12    27    29    1
    13    29    30   ar
    14    30    31    1
    15    30    32   ar
    16    32    33   ar
    17    33    34   ar
    18    34    35   ar
    19    35    36    1
    20    23    24   ar
    21     6     7   ar
    22     7     8   ar
    23     8    10    1
    24    10    11    1
    25    11    12    1
    26    12    13    1
    27    13    16    1
    28    16    17    1
    29    17    18    1
    30    13    14    1
    31    14    15    1
    32     8     9   ar
    33     9     4   ar
    34    24    20   ar
    35    15    10    1
    36    35    29   ar
    37     1     2    1
    38    27    28    1
    39    18    19    1
@<TRIPOS>MOLECULE
*****
 36 39 0 0 0
SMALL
GASTEIGER

@<TRIPOS>ATOM
      1 N         142.6816  138.9689  157.2414 N.pl3   1  UNL1       -0.2780
      2 H         142.9799  139.7514  156.7238 H       1  UNL1        0.1555
      3 C         139.3390  136.9286  153.8262 C.3     1  UNL1        0.0738
      4 C         140.4428  136.7538  154.8267 C.ar    1  UNL1        0.1424
      5 N         141.0103  137.9487  155.5338 N.ar    1  UNL1       -0.2158
      6 C         142.1141  137.7739  156.5343 C.ar    1  UNL1        0.1377
      7 C         142.6505  136.4041  156.8276 C.ar    1  UNL1        0.0687
      8 C         142.0830  135.2092  156.1205 C.ar    1  UNL1        0.1359
      9 N         140.9792  135.3841  155.1200 N.ar    1  UNL1       -0.2159
     10 N         142.6193  133.8394  156.4138 N.pl3   1  UNL1       -0.2903
     11 C         141.9820  132.6345  155.7877 C.3     1  UNL1        0.1095
     12 C         142.5184  131.2647  156.0811 C.3     1  UNL1        0.0939
     13 N         143.6920  131.0998  157.0005 N.3     1  UNL1       -0.2677
     14 C         144.3294  132.3048  157.6266 C.3     1  UNL1        0.0939
     15 C         143.7930  133.6745  157.3332 C.3     1  UNL1        0.1095
     16 C         144.2284  129.7301  157.2938 C.3     1  UNL1        0.1043
     17 C         143.5196  128.8408  158.2719 C.3     1  UNL1        0.1544
     18 O         143.6309  129.1063  159.7441 O.3     1  UNL1       -0.3805
     19 H         144.5469  128.9644  160.0299 H       1  UNL1        0.2105
     20 C         142.7946  138.9715  158.7372 C.ar    1  UNL1        0.1648
     21 N         144.0503  139.1970  159.5261 N.ar    1  UNL1       -0.2223
     22 C         143.7035  139.1140  160.9831 C.ar    1  UNL1        0.1119
     23 C         142.2335  138.8373  161.0947 C.ar    1  UNL1        0.1047
     24 S         141.6718  138.7492  159.7066 S.2     1  UNL1       -0.0468
     25 C         141.4608  138.6767  162.3703 C.2     1  UNL1        0.2572
     26 O         141.0296  137.3120  162.8193 O.2     1  UNL1       -0.2692
     27 N         141.1192  139.8810  163.1969 N.am    1  UNL1       -0.2795
     28 H         141.4022  140.7767  162.9022 H       1  UNL1        0.1552
     29 C         140.3465  139.7205  164.4725 C.ar    1  UNL1        0.0572
     30 C         141.0633  139.7324  165.7900 C.ar    1  UNL1       -0.0075
     31 C         142.5527  139.9048  165.8322 C.3     1  UNL1        0.0324
     32 C         140.2905  139.5719  167.0657 C.ar    1  UNL1       -0.0030
     33 C         138.8010  139.3994  167.0236 C.ar    1  UNL1        0.0006
     34 C         138.0843  139.3875  165.7060 C.ar    1  UNL1        0.0126
     35 C         138.8571  139.5480  164.4304 C.ar    1  UNL1        0.0708
     36 CL        138.1403  139.5361  163.1128 Cl      1  UNL1       -0.0810
@<TRIPOS>BOND
     1     3     4    1
     2     4     5   ar
     3     5     6   ar
     4     6     1    1
     5     1    20    1
     6    20    21   ar
     7    21    22   ar
     8    22    23   ar
     9    23    25    1
    10    25    26    2
    11    25    27   am
    12    27    29    1
    13    29    30   ar
    14    30    31    1
    15    30    32   ar
    16    32    33   ar
    17    33    34   ar
    18    34    35   ar
    19    35    36    1
    20    23    24   ar
    21     6     7   ar
    22     7     8   ar
    23     8    10    1
    24    10    11    1
    25    11    12    1
    26    12    13    1
    27    13    16    1
    28    16    17    1
    29    17    18    1
    30    13    14    1
    31    14    15    1
    32     8     9   ar
    33     9     4   ar
    34    24    20   ar
    35    15    10    1
    36    35    29   ar
    37     1     2    1
    38    27    28    1
    39    18    19    1
@<TRIPOS>MOLECULE
*****
 36 39 0 0 0
SMALL
GASTEIGER

@<TRIPOS>ATOM
      1 N         138.2124  141.5986  158.8022 N.pl3   1  UNL1       -0.2780
      2 H         138.2778  142.5703  158.6578 H       1  UNL1        0.1555
      3 C         136.0544  140.0160  154.3482 C.3     1  UNL1        0.0738
      4 C         137.1135  139.8742  155.4009 C.ar    1  UNL1        0.1424
      5 N         137.1334  140.8072  156.5752 N.ar    1  UNL1       -0.2158
      6 C         138.1925  140.6655  157.6279 C.ar    1  UNL1        0.1377
      7 C         139.2317  139.5907  157.5063 C.ar    1  UNL1        0.0687
      8 C         139.2118  138.6576  156.3320 C.ar    1  UNL1        0.1359
      9 N         138.1527  138.7994  155.2793 N.ar    1  UNL1       -0.2159
     10 N         140.2511  137.5828  156.2104 N.pl3   1  UNL1       -0.2903
     11 C         140.1044  136.5120  155.1703 C.3     1  UNL1        0.1095
     12 C         141.1436  135.4371  155.0487 C.3     1  UNL1        0.0939
     13 N         142.3295  135.4331  155.9672 N.3     1  UNL1       -0.2677
     14 C         142.4761  136.5039  157.0074 C.3     1  UNL1        0.0939
     15 C         141.4369  137.5787  157.1290 C.3     1  UNL1        0.1095
     16 C         143.3687  134.3583  155.8456 C.3     1  UNL1        0.1043
     17 C         143.9197  133.7050  157.0783 C.3     1  UNL1        0.1544
     18 O         143.0549  132.7882  157.8917 O.3     1  UNL1       -0.3805
     19 H         142.3288  133.2952  158.2875 H       1  UNL1        0.2105
     20 C         138.1326  141.0512  160.1965 C.ar    1  UNL1        0.1648
     21 N         137.6655  139.6782  160.5793 N.ar    1  UNL1       -0.2223
     22 C         137.7501  139.5591  162.0722 C.ar    1  UNL1        0.1119
     23 C         138.2694  140.8587  162.6121 C.ar    1  UNL1        0.1047
     24 S         138.5058  141.7808  161.4528 S.2     1  UNL1       -0.0468
     25 C         138.5101  141.1797  164.0574 C.2     1  UNL1        0.2572
     26 O         137.7570  142.2993  164.7124 O.2     1  UNL1       -0.2692
     27 N         139.5040  140.3811  164.8477 N.am    1  UNL1       -0.2795
     28 H         139.9983  139.6463  164.4177 H       1  UNL1        0.1552
     29 C         139.7447  140.7022  166.2930 C.ar    1  UNL1        0.0572
     30 C         139.0693  139.8965  167.3628 C.ar    1  UNL1       -0.0075
     31 C         138.1531  138.7696  166.9874 C.3     1  UNL1        0.0324
     32 C         139.3101  140.2176  168.8082 C.ar    1  UNL1       -0.0030
     33 C         140.2262  141.3444  169.1836 C.ar    1  UNL1        0.0006
     34 C         140.9016  142.1501  168.1138 C.ar    1  UNL1        0.0126
     35 C         140.6609  141.8290  166.6685 C.ar    1  UNL1        0.0708
     36 CL        141.3363  142.6347  165.5986 Cl      1  UNL1       -0.0810
@<TRIPOS>BOND
     1     3     4    1
     2     4     5   ar
     3     5     6   ar
     4     6     1    1
     5     1    20    1
     6    20    21   ar
     7    21    22   ar
     8    22    23   ar
     9    23    25    1
    10    25    26    2
    11    25    27   am
    12    27    29    1
    13    29    30   ar
    14    30    31    1
    15    30    32   ar
    16    32    33   ar
    17    33    34   ar
    18    34    35   ar
    19    35    36    1
    20    23    24   ar
    21     6     7   ar
    22     7     8   ar
    23     8    10    1
    24    10    11    1
    25    11    12    1
    26    12    13    1
    27    13    16    1
    28    16    17    1
    29    17    18    1
    30    13    14    1
    31    14    15    1
    32     8     9   ar
    33     9     4   ar
    34    24    20   ar
    35    15    10    1
    36    35    29   ar
    37     1     2    1
    38    27    28    1
    39    18    19    1
