@<TRIPOS>MOLECULE
*****
 31 34 0 0 0
SMALL
GASTEIGER

@<TRIPOS>ATOM
      1 O         142.2413  138.1459  164.3310 O.2     1  UNL1       -0.2522
      2 C         141.3418  138.7665  163.3034 C.2     1  UNL1        0.3078
      3 N         140.1590  139.5812  163.7359 N.am    1  UNL1       -0.2681
      4 N         141.6252  138.5722  161.8432 N.am    1  UNL1       -0.2611
      5 C         142.8079  137.7574  161.4107 C.3     1  UNL1        0.1123
      6 C         143.0913  137.5631  159.9506 C.3     1  UNL1        0.0940
      7 N         142.1918  138.1836  158.9230 N.3     1  UNL1       -0.2697
      8 C         141.0090  138.9984  159.3555 C.3     1  UNL1        0.0940
      9 C         140.7257  139.1927  160.8156 C.3     1  UNL1        0.1123
     10 H         139.5687  139.9885  163.0615 H       1  UNL1        0.1564
     11 C         139.8757  139.7755  165.1961 C.ar    1  UNL1        0.0516
     12 C         138.7720  139.0027  165.8552 C.ar    1  UNL1        0.0156
     13 C         138.4886  139.1970  167.3153 C.ar    1  UNL1        0.0126
     14 C         139.3090  140.1642  168.1163 C.ar    1  UNL1        0.0616
     15 CL        139.0257  140.3585  169.5765 Cl      1  UNL1       -0.0823
     16 C         140.4127  140.9370  167.4572 C.ar    1  UNL1        0.0832
     17 C         140.6960  140.7427  165.9971 C.ar    1  UNL1        0.0194
     18 C         141.2331  141.9042  168.2581 C.3     1  UNL1        0.4194
     19 F         142.0535  142.8714  169.0591 F       1  UNL1       -0.1658
     20 F         140.2827  143.0077  167.8992 F       1  UNL1       -0.1658
     21 F         142.1836  140.8007  168.6171 F       1  UNL1       -0.1658
     22 C         142.4752  137.9893  157.4628 C.3     1  UNL1        0.0735
     23 C         142.3191  136.6326  156.8426 C.3     1  UNL1        0.0320
     24 C         141.1865  136.3665  155.8958 C.3     1  UNL1        0.0042
     25 C         141.0305  135.0097  155.2756 C.3     1  UNL1        0.0174
     26 C         142.0071  133.9189  155.6022 C.3     1  UNL1        0.0720
     27 N         143.1396  134.1850  156.5490 N.3     1  UNL1       -0.2739
     28 C         143.2956  135.5419  157.1692 C.3     1  UNL1        0.0734
     29 C         144.1162  133.0943  156.8756 C.3     1  UNL1        0.0576
     30 C         144.8928  131.8794  156.4623 C.3     1  UNL1        0.0173
     31 C         145.0310  132.4200  157.8546 C.3     1  UNL1        0.0173
@<TRIPOS>BOND
     1     1     2    2
     2     2     3   am
     3     3    11    1
     4    11    12   ar
     5    12    13   ar
     6    13    14   ar
     7    14    15    1
     8    14    16   ar
     9    16    18    1
    10    18    19    1
    11    18    20    1
    12    18    21    1
    13    16    17   ar
    14     2     4   am
    15     4     5    1
    16     5     6    1
    17     6     7    1
    18     7    22    1
    19    23    22    1
    20    23    24    1
    21    24    25    1
    22    25    26    1
    23    26    27    1
    24    27    29    1
    25    29    30    1
    26    30    31    1
    27    27    28    1
    28     7     8    1
    29     8     9    1
    30    17    11   ar
    31     9     4    1
    32    28    23    1
    33    31    29    1
    34     3    10    1
@<TRIPOS>MOLECULE
*****
 31 34 0 0 0
SMALL
GASTEIGER

@<TRIPOS>ATOM
      1 O         139.6679  144.1469  164.6059 O.2     1  UNL1       -0.2522
      2 C         140.5536  143.2550  163.7873 C.2     1  UNL1        0.3078
      3 N         141.1586  142.0287  164.4037 N.am    1  UNL1       -0.2681
      4 N         140.8343  143.5896  162.3522 N.am    1  UNL1       -0.2611
      5 C         140.2294  144.8159  161.7358 C.3     1  UNL1        0.1123
      6 C         140.5101  145.1504  160.3009 C.3     1  UNL1        0.0940
      7 N         141.3958  144.2586  159.4823 N.3     1  UNL1       -0.2697
      8 C         142.0008  143.0322  160.0986 C.3     1  UNL1        0.0940
      9 C         141.7201  142.6977  161.5336 C.3     1  UNL1        0.1123
     10 H         141.7400  141.4433  163.8664 H       1  UNL1        0.1564
     11 C         140.8779  141.6941  165.8388 C.ar    1  UNL1        0.0516
     12 C         139.8632  140.6432  166.1793 C.ar    1  UNL1        0.0156
     13 C         139.5826  140.3087  167.6143 C.ar    1  UNL1        0.0126
     14 C         140.3166  141.0251  168.7088 C.ar    1  UNL1        0.0616
     15 CL        140.0359  140.6905  170.1439 Cl      1  UNL1       -0.0823
     16 C         141.3313  142.0760  168.3683 C.ar    1  UNL1        0.0832
     17 C         141.6120  142.4105  166.9333 C.ar    1  UNL1        0.0194
     18 C         142.0654  142.7923  169.4628 C.3     1  UNL1        0.4194
     19 F         142.7994  143.5087  170.5574 F       1  UNL1       -0.1658
     20 F         143.1649  141.7744  169.3917 F       1  UNL1       -0.1658
     21 F         140.9659  143.8102  169.5340 F       1  UNL1       -0.1658
     22 C         141.6765  144.5932  158.0472 C.3     1  UNL1        0.0735
     23 C         140.5555  145.0067  157.1404 C.3     1  UNL1        0.0320
     24 C         139.6085  143.9764  156.6004 C.3     1  UNL1        0.0042
     25 C         138.4876  144.3899  155.6936 C.3     1  UNL1        0.0174
     26 C         138.3135  145.8340  155.3267 C.3     1  UNL1        0.0720
     27 N         139.2605  146.8644  155.8667 N.3     1  UNL1       -0.2739
     28 C         140.3815  146.4507  156.7735 C.3     1  UNL1        0.0734
     29 C         139.0866  148.3083  155.4998 C.3     1  UNL1        0.0576
     30 C         139.3811  149.4612  154.5865 C.3     1  UNL1        0.0173
     31 C         138.4907  149.6565  155.7777 C.3     1  UNL1        0.0173
@<TRIPOS>BOND
     1     1     2    2
     2     2     3   am
     3     3    11    1
     4    11    12   ar
     5    12    13   ar
     6    13    14   ar
     7    14    15    1
     8    14    16   ar
     9    16    18    1
    10    18    19    1
    11    18    20    1
    12    18    21    1
    13    16    17   ar
    14     2     4   am
    15     4     5    1
    16     5     6    1
    17     6     7    1
    18     7    22    1
    19    23    22    1
    20    23    24    1
    21    24    25    1
    22    25    26    1
    23    26    27    1
    24    27    29    1
    25    29    30    1
    26    30    31    1
    27    27    28    1
    28     7     8    1
    29     8     9    1
    30    17    11   ar
    31     9     4    1
    32    28    23    1
    33    31    29    1
    34     3    10    1
@<TRIPOS>MOLECULE
*****
 31 34 0 0 0
SMALL
GASTEIGER

@<TRIPOS>ATOM
      1 O         143.2445  138.8740  165.6140 O.2     1  UNL1       -0.2522
      2 C         142.4953  139.8320  164.7361 C.2     1  UNL1        0.3078
      3 N         141.5634  140.8367  165.3462 N.am    1  UNL1       -0.2681
      4 N         142.6779  139.7854  163.2479 N.am    1  UNL1       -0.2611
      5 C         143.6098  138.7808  162.6378 C.3     1  UNL1        0.1123
      6 C         143.7924  138.7342  161.1497 C.3     1  UNL1        0.0940
      7 N         143.0432  139.6923  160.2718 N.3     1  UNL1       -0.2697
      8 C         142.1114  140.6969  160.8819 C.3     1  UNL1        0.0940
      9 C         141.9287  140.7435  162.3700 C.3     1  UNL1        0.1123
     10 H         141.0717  141.4655  164.7700 H       1  UNL1        0.1564
     11 C         141.3808  140.8833  166.8344 C.ar    1  UNL1        0.0516
     12 C         140.3378  140.0269  167.4892 C.ar    1  UNL1        0.0156
     13 C         140.1552  140.0736  168.9772 C.ar    1  UNL1        0.0126
     14 C         141.0155  140.9766  169.8105 C.ar    1  UNL1        0.0616
     15 CL        140.8328  141.0232  171.2987 Cl      1  UNL1       -0.0823
     16 C         142.0585  141.8330  169.1557 C.ar    1  UNL1        0.0832
     17 C         142.2411  141.7863  167.6677 C.ar    1  UNL1        0.0194
     18 C         142.9188  142.7360  169.9890 C.3     1  UNL1        0.4194
     19 F         143.7791  143.6390  170.8223 F       1  UNL1       -0.1658
     20 F         141.8204  143.7572  170.0165 F       1  UNL1       -0.1658
     21 F         144.0172  141.7149  169.9616 F       1  UNL1       -0.1658
     22 C         143.2259  139.6457  158.7836 C.3     1  UNL1        0.0735
     23 C         142.3460  138.7647  157.9472 C.3     1  UNL1        0.0320
     24 C         140.9800  139.2351  157.5437 C.3     1  UNL1        0.0042
     25 C         140.1001  138.3541  156.7073 C.3     1  UNL1        0.0174
     26 C         140.5862  137.0026  156.2743 C.3     1  UNL1        0.0720
     27 N         141.9522  136.5322  156.6779 N.3     1  UNL1       -0.2739
     28 C         142.8321  137.4133  157.5143 C.3     1  UNL1        0.0734
     29 C         142.4383  135.1809  156.2450 C.3     1  UNL1        0.0576
     30 C         142.8863  134.2480  155.1592 C.3     1  UNL1        0.0173
     31 C         142.8322  133.7731  156.5810 C.3     1  UNL1        0.0173
@<TRIPOS>BOND
     1     1     2    2
     2     2     3   am
     3     3    11    1
     4    11    12   ar
     5    12    13   ar
     6    13    14   ar
     7    14    15    1
     8    14    16   ar
     9    16    18    1
    10    18    19    1
    11    18    20    1
    12    18    21    1
    13    16    17   ar
    14     2     4   am
    15     4     5    1
    16     5     6    1
    17     6     7    1
    18     7    22    1
    19    23    22    1
    20    23    24    1
    21    24    25    1
    22    25    26    1
    23    26    27    1
    24    27    29    1
    25    29    30    1
    26    30    31    1
    27    27    28    1
    28     7     8    1
    29     8     9    1
    30    17    11   ar
    31     9     4    1
    32    28    23    1
    33    31    29    1
    34     3    10    1
@<TRIPOS>MOLECULE
*****
 31 34 0 0 0
SMALL
GASTEIGER

@<TRIPOS>ATOM
      1 O         140.6037  138.0009  157.8990 O.2     1  UNL1       -0.2522
      2 C         142.0124  138.0350  158.4132 C.2     1  UNL1        0.3078
      3 N         143.0963  137.3019  157.6801 N.am    1  UNL1       -0.2681
      4 N         142.3371  138.8023  159.6606 N.am    1  UNL1       -0.2611
      5 C         141.2532  139.5355  160.3937 C.3     1  UNL1        0.1123
      6 C         141.5780  140.3028  161.6410 C.3     1  UNL1        0.0940
      7 N         142.9867  140.3369  162.1551 N.3     1  UNL1       -0.2697
      8 C         144.0706  139.6037  161.4220 C.3     1  UNL1        0.0940
      9 C         143.7458  138.8365  160.1747 C.3     1  UNL1        0.1123
     10 H         144.0209  137.3243  158.0176 H       1  UNL1        0.1564
     11 C         142.7716  136.5345  156.4327 C.ar    1  UNL1        0.0516
     12 C         142.5438  137.2634  155.1417 C.ar    1  UNL1        0.0156
     13 C         142.2191  136.4961  153.8945 C.ar    1  UNL1        0.0126
     14 C         142.1222  134.9999  153.9382 C.ar    1  UNL1        0.0616
     15 CL        141.7974  134.2326  152.6908 Cl      1  UNL1       -0.0823
     16 C         142.3500  134.2710  155.2292 C.ar    1  UNL1        0.0832
     17 C         142.6747  135.0383  156.4765 C.ar    1  UNL1        0.0194
     18 C         142.2530  132.7748  155.2729 C.3     1  UNL1        0.4194
     19 F         142.1561  131.2785  155.3167 F       1  UNL1       -0.1658
     20 F         140.7832  132.8782  155.5540 F       1  UNL1       -0.1658
     21 F         143.7228  132.6713  154.9919 F       1  UNL1       -0.1658
     22 C         143.3114  141.1042  163.4025 C.3     1  UNL1        0.0735
     23 C         142.8226  142.5130  163.5651 C.3     1  UNL1        0.0320
     24 C         143.7438  143.6634  163.2857 C.3     1  UNL1        0.0042
     25 C         143.2550  145.0721  163.4483 C.3     1  UNL1        0.0174
     26 C         141.8450  145.3305  163.8902 C.3     1  UNL1        0.0720
     27 N         140.9239  144.1801  164.1696 N.3     1  UNL1       -0.2739
     28 C         141.4127  142.7713  164.0070 C.3     1  UNL1        0.0734
     29 C         139.5140  144.4385  164.6115 C.3     1  UNL1        0.0576
     30 C         138.0374  144.3438  164.3652 C.3     1  UNL1        0.0173
     31 C         138.5485  144.9806  165.6234 C.3     1  UNL1        0.0173
@<TRIPOS>BOND
     1     1     2    2
     2     2     3   am
     3     3    11    1
     4    11    12   ar
     5    12    13   ar
     6    13    14   ar
     7    14    15    1
     8    14    16   ar
     9    16    18    1
    10    18    19    1
    11    18    20    1
    12    18    21    1
    13    16    17   ar
    14     2     4   am
    15     4     5    1
    16     5     6    1
    17     6     7    1
    18     7    22    1
    19    23    22    1
    20    23    24    1
    21    24    25    1
    22    25    26    1
    23    26    27    1
    24    27    29    1
    25    29    30    1
    26    30    31    1
    27    27    28    1
    28     7     8    1
    29     8     9    1
    30    17    11   ar
    31     9     4    1
    32    28    23    1
    33    31    29    1
    34     3    10    1
@<TRIPOS>MOLECULE
*****
 31 34 0 0 0
SMALL
GASTEIGER

@<TRIPOS>ATOM
      1 O         139.5539  144.4231  164.8963 O.2     1  UNL1       -0.2522
      2 C         140.4447  143.6353  163.9822 C.2     1  UNL1        0.3078
      3 N         141.1131  142.3874  164.4783 N.am    1  UNL1       -0.2681
      4 N         140.6673  144.0953  162.5719 N.am    1  UNL1       -0.2611
      5 C         139.9990  145.3432  162.0758 C.3     1  UNL1        0.1123
      6 C         140.2215  145.8031  160.6655 C.3     1  UNL1        0.0940
      7 N         141.1124  145.0153  159.7514 N.3     1  UNL1       -0.2697
      8 C         141.7807  143.7674  160.2475 C.3     1  UNL1        0.0940
      9 C         141.5581  143.3074  161.6578 C.3     1  UNL1        0.1123
     10 H         141.6978  141.8703  163.8784 H       1  UNL1        0.1564
     11 C         140.8905  141.9274  165.8887 C.ar    1  UNL1        0.0516
     12 C         139.8964  140.8413  166.1752 C.ar    1  UNL1        0.0156
     13 C         139.6739  140.3813  167.5855 C.ar    1  UNL1        0.0126
     14 C         140.4455  141.0074  168.7092 C.ar    1  UNL1        0.0616
     15 CL        140.2230  140.5473  170.1195 Cl      1  UNL1       -0.0823
     16 C         141.4397  142.0934  168.4226 C.ar    1  UNL1        0.0832
     17 C         141.6622  142.5534  167.0123 C.ar    1  UNL1        0.0194
     18 C         142.2113  142.7195  169.5463 C.3     1  UNL1        0.4194
     19 F         142.9829  143.3455  170.6699 F       1  UNL1       -0.1658
     20 F         143.2814  141.6799  169.3906 F       1  UNL1       -0.1658
     21 F         141.1412  143.7591  169.7019 F       1  UNL1       -0.1658
     22 C         141.3349  145.4753  158.3411 C.3     1  UNL1        0.0735
     23 C         140.2346  145.3513  157.3293 C.3     1  UNL1        0.0320
     24 C         139.8525  146.5329  156.4880 C.3     1  UNL1        0.0042
     25 C         138.7522  146.4089  155.4762 C.3     1  UNL1        0.0174
     26 C         138.0338  145.1031  155.3056 C.3     1  UNL1        0.0720
     27 N         138.4158  143.9215  156.1469 N.3     1  UNL1       -0.2739
     28 C         139.5163  144.0456  157.1588 C.3     1  UNL1        0.0734
     29 C         137.6975  142.6158  155.9764 C.3     1  UNL1        0.0576
     30 C         136.4268  141.8525  155.7475 C.3     1  UNL1        0.0173
     31 C         137.7242  141.1175  155.9099 C.3     1  UNL1        0.0173
@<TRIPOS>BOND
     1     1     2    2
     2     2     3   am
     3     3    11    1
     4    11    12   ar
     5    12    13   ar
     6    13    14   ar
     7    14    15    1
     8    14    16   ar
     9    16    18    1
    10    18    19    1
    11    18    20    1
    12    18    21    1
    13    16    17   ar
    14     2     4   am
    15     4     5    1
    16     5     6    1
    17     6     7    1
    18     7    22    1
    19    23    22    1
    20    23    24    1
    21    24    25    1
    22    25    26    1
    23    26    27    1
    24    27    29    1
    25    29    30    1
    26    30    31    1
    27    27    28    1
    28     7     8    1
    29     8     9    1
    30    17    11   ar
    31     9     4    1
    32    28    23    1
    33    31    29    1
    34     3    10    1
@<TRIPOS>MOLECULE
*****
 31 34 0 0 0
SMALL
GASTEIGER

@<TRIPOS>ATOM
      1 O         144.2808  139.8002  164.3716 O.2     1  UNL1       -0.2522
      2 C         143.5140  141.0266  163.9739 C.2     1  UNL1        0.3078
      3 N         142.7547  141.8044  165.0075 N.am    1  UNL1       -0.2681
      4 N         143.5066  141.4751  162.5425 N.am    1  UNL1       -0.2611
      5 C         144.2659  140.6973  161.5089 C.3     1  UNL1        0.1123
      6 C         144.2585  141.1458  160.0776 C.3     1  UNL1        0.0940
      7 N         143.4917  142.3721  159.6799 N.3     1  UNL1       -0.2697
      8 C         142.7324  143.1499  160.7135 C.3     1  UNL1        0.0940
      9 C         142.7398  142.7014  162.1448 C.3     1  UNL1        0.1123
     10 H         142.2514  142.6092  164.7465 H       1  UNL1        0.1564
     11 C         142.7621  141.3558  166.4389 C.ar    1  UNL1        0.0516
     12 C         142.4779  139.9224  166.7772 C.ar    1  UNL1        0.0156
     13 C         142.4854  139.4740  168.2085 C.ar    1  UNL1        0.0126
     14 C         142.7770  140.4590  169.3016 C.ar    1  UNL1        0.0616
     15 CL        142.7844  140.0104  170.7330 Cl      1  UNL1       -0.0823
     16 C         143.0611  141.8924  168.9633 C.ar    1  UNL1        0.0832
     17 C         143.0537  142.3408  167.5320 C.ar    1  UNL1        0.0194
     18 C         143.3528  142.8774  170.0564 C.3     1  UNL1        0.4194
     19 F         143.6444  143.8623  171.1494 F       1  UNL1       -0.1658
     20 F         144.8009  142.4882  170.0207 F       1  UNL1       -0.1658
     21 F         141.9046  143.2666  170.0920 F       1  UNL1       -0.1658
     22 C         143.4843  142.8206  158.2484 C.3     1  UNL1        0.0735
     23 C         144.1528  141.9852  157.1972 C.3     1  UNL1        0.0320
     24 C         143.4135  140.8440  156.5638 C.3     1  UNL1        0.0042
     25 C         144.0820  140.0086  155.5126 C.3     1  UNL1        0.0174
     26 C         145.4899  140.3143  155.0948 C.3     1  UNL1        0.0720
     27 N         146.2292  141.4554  155.7282 N.3     1  UNL1       -0.2739
     28 C         145.5606  142.2909  156.7794 C.3     1  UNL1        0.0734
     29 C         147.6370  141.7611  155.3104 C.3     1  UNL1        0.0576
     30 C         149.1122  141.7030  155.5752 C.3     1  UNL1        0.0173
     31 C         148.6001  142.3487  154.3219 C.3     1  UNL1        0.0173
@<TRIPOS>BOND
     1     1     2    2
     2     2     3   am
     3     3    11    1
     4    11    12   ar
     5    12    13   ar
     6    13    14   ar
     7    14    15    1
     8    14    16   ar
     9    16    18    1
    10    18    19    1
    11    18    20    1
    12    18    21    1
    13    16    17   ar
    14     2     4   am
    15     4     5    1
    16     5     6    1
    17     6     7    1
    18     7    22    1
    19    23    22    1
    20    23    24    1
    21    24    25    1
    22    25    26    1
    23    26    27    1
    24    27    29    1
    25    29    30    1
    26    30    31    1
    27    27    28    1
    28     7     8    1
    29     8     9    1
    30    17    11   ar
    31     9     4    1
    32    28    23    1
    33    31    29    1
    34     3    10    1
@<TRIPOS>MOLECULE
*****
 31 34 0 0 0
SMALL
GASTEIGER

@<TRIPOS>ATOM
      1 O         140.6777  138.0660  158.2110 O.2     1  UNL1       -0.2522
      2 C         142.0993  138.2149  158.6656 C.2     1  UNL1        0.3078
      3 N         143.2075  137.5721  157.8855 N.am    1  UNL1       -0.2681
      4 N         142.4128  139.0067  159.9005 N.am    1  UNL1       -0.2611
      5 C         141.3046  139.6495  160.6807 C.3     1  UNL1        0.1123
      6 C         141.6181  140.4412  161.9155 C.3     1  UNL1        0.0940
      7 N         143.0397  140.5901  162.3702 N.3     1  UNL1       -0.2697
      8 C         144.1479  139.9473  161.5901 C.3     1  UNL1        0.0940
      9 C         143.8344  139.1556  160.3552 C.3     1  UNL1        0.1123
     10 H         144.1406  137.6698  158.1839 H       1  UNL1        0.1564
     11 C         142.8940  136.7803  156.6506 C.ar    1  UNL1        0.0516
     12 C         142.6764  137.4837  155.3438 C.ar    1  UNL1        0.0156
     13 C         142.3630  136.6920  154.1090 C.ar    1  UNL1        0.0126
     14 C         142.2672  135.1968  154.1810 C.ar    1  UNL1        0.0616
     15 CL        141.9537  134.4050  152.9461 Cl      1  UNL1       -0.0823
     16 C         142.4848  134.4933  155.4878 C.ar    1  UNL1        0.0832
     17 C         142.7982  135.2851  156.7226 C.ar    1  UNL1        0.0194
     18 C         142.3889  132.9981  155.5598 C.3     1  UNL1        0.4194
     19 F         142.2931  131.5029  155.6318 F       1  UNL1       -0.1658
     20 F         140.8957  133.0987  155.6612 F       1  UNL1       -0.1658
     21 F         143.8821  132.8975  155.4584 F       1  UNL1       -0.1658
     22 C         143.3532  141.3819  163.6051 C.3     1  UNL1        0.0735
     23 C         143.1200  140.7820  164.9600 C.3     1  UNL1        0.0320
     24 C         143.3976  139.3266  165.1936 C.3     1  UNL1        0.0042
     25 C         143.1645  138.7266  166.5485 C.3     1  UNL1        0.0174
     26 C         142.6536  139.5822  167.6698 C.3     1  UNL1        0.0720
     27 N         142.3760  141.0376  167.4361 N.3     1  UNL1       -0.2739
     28 C         142.6092  141.6375  166.0812 C.3     1  UNL1        0.0734
     29 C         141.8652  141.8932  168.5573 C.3     1  UNL1        0.0576
     30 C         142.1198  142.8780  169.6597 C.3     1  UNL1        0.0173
     31 C         140.7259  142.3902  169.3969 C.3     1  UNL1        0.0173
@<TRIPOS>BOND
     1     1     2    2
     2     2     3   am
     3     3    11    1
     4    11    12   ar
     5    12    13   ar
     6    13    14   ar
     7    14    15    1
     8    14    16   ar
     9    16    18    1
    10    18    19    1
    11    18    20    1
    12    18    21    1
    13    16    17   ar
    14     2     4   am
    15     4     5    1
    16     5     6    1
    17     6     7    1
    18     7    22    1
    19    23    22    1
    20    23    24    1
    21    24    25    1
    22    25    26    1
    23    26    27    1
    24    27    29    1
    25    29    30    1
    26    30    31    1
    27    27    28    1
    28     7     8    1
    29     8     9    1
    30    17    11   ar
    31     9     4    1
    32    28    23    1
    33    31    29    1
    34     3    10    1
@<TRIPOS>MOLECULE
*****
 31 34 0 0 0
SMALL
GASTEIGER

@<TRIPOS>ATOM
      1 O         143.7715  139.0597  164.7321 O.2     1  UNL1       -0.2522
      2 C         142.5831  139.6321  164.0178 C.2     1  UNL1        0.3078
      3 N         141.6718  140.5898  164.7263 N.am    1  UNL1       -0.2681
      4 N         142.3061  139.2466  162.5948 N.am    1  UNL1       -0.2611
      5 C         143.2174  138.2888  161.8862 C.3     1  UNL1        0.1123
      6 C         142.9404  137.9034  160.4633 C.3     1  UNL1        0.0940
      7 N         141.7520  138.4757  159.7490 N.3     1  UNL1       -0.2697
      8 C         140.8407  139.4335  160.4576 C.3     1  UNL1        0.0940
      9 C         141.1177  139.8189  161.8805 C.3     1  UNL1        0.1123
     10 H         140.8918  140.9654  164.2575 H       1  UNL1        0.1564
     11 C         141.9488  140.9753  166.1493 C.ar    1  UNL1        0.0516
     12 C         143.0286  141.9688  166.4606 C.ar    1  UNL1        0.0156
     13 C         143.3056  142.3542  167.8835 C.ar    1  UNL1        0.0126
     14 C         142.5027  141.7462  168.9951 C.ar    1  UNL1        0.0616
     15 CL        142.7798  142.1316  170.4181 Cl      1  UNL1       -0.0823
     16 C         141.4229  140.7527  168.6838 C.ar    1  UNL1        0.0832
     17 C         141.1460  140.3672  167.2609 C.ar    1  UNL1        0.0194
     18 C         140.6201  140.1446  169.7954 C.3     1  UNL1        0.4194
     19 F         139.8173  139.5365  170.9071 F       1  UNL1       -0.1658
     20 F         141.6426  139.0565  169.9387 F       1  UNL1       -0.1658
     21 F         139.5976  141.2327  169.6522 F       1  UNL1       -0.1658
     22 C         141.4750  138.0902  158.3261 C.3     1  UNL1        0.0735
     23 C         142.5839  138.1029  157.3161 C.3     1  UNL1        0.0320
     24 C         142.9139  136.8568  156.5489 C.3     1  UNL1        0.0042
     25 C         144.0229  136.8695  155.5390 C.3     1  UNL1        0.0174
     26 C         144.8019  138.1281  155.2962 C.3     1  UNL1        0.0720
     27 N         144.4720  139.3742  156.0634 N.3     1  UNL1       -0.2739
     28 C         143.3629  139.3615  157.0734 C.3     1  UNL1        0.0734
     29 C         145.2509  140.6328  155.8207 C.3     1  UNL1        0.0576
     30 C         146.5561  141.3211  155.5513 C.3     1  UNL1        0.0173
     31 C         145.2950  142.1245  155.6696 C.3     1  UNL1        0.0173
@<TRIPOS>BOND
     1     1     2    2
     2     2     3   am
     3     3    11    1
     4    11    12   ar
     5    12    13   ar
     6    13    14   ar
     7    14    15    1
     8    14    16   ar
     9    16    18    1
    10    18    19    1
    11    18    20    1
    12    18    21    1
    13    16    17   ar
    14     2     4   am
    15     4     5    1
    16     5     6    1
    17     6     7    1
    18     7    22    1
    19    23    22    1
    20    23    24    1
    21    24    25    1
    22    25    26    1
    23    26    27    1
    24    27    29    1
    25    29    30    1
    26    30    31    1
    27    27    28    1
    28     7     8    1
    29     8     9    1
    30    17    11   ar
    31     9     4    1
    32    28    23    1
    33    31    29    1
    34     3    10    1
@<TRIPOS>MOLECULE
*****
 31 34 0 0 0
SMALL
GASTEIGER

@<TRIPOS>ATOM
      1 O         144.3893  141.7101  159.3998 O.2     1  UNL1       -0.2522
      2 C         143.6897  140.4210  159.7139 C.2     1  UNL1        0.3078
      3 N         143.3689  140.0689  161.1362 N.am    1  UNL1       -0.2681
      4 N         143.3108  139.4839  158.6055 N.am    1  UNL1       -0.2611
      5 C         143.6315  139.8359  157.1832 C.3     1  UNL1        0.1123
      6 C         143.2527  138.8989  156.0749 C.3     1  UNL1        0.0940
      7 N         142.5531  137.6097  156.3890 N.3     1  UNL1       -0.2697
      8 C         142.2323  137.2576  157.8114 C.3     1  UNL1        0.0940
      9 C         142.6112  138.1947  158.9196 C.3     1  UNL1        0.1123
     10 H         142.9097  139.2228  161.3424 H       1  UNL1        0.1564
     11 C         143.7478  141.0060  162.2446 C.ar    1  UNL1        0.0516
     12 C         144.9120  140.6841  163.1339 C.ar    1  UNL1        0.0156
     13 C         145.2909  141.6211  164.2421 C.ar    1  UNL1        0.0126
     14 C         144.5054  142.8801  164.4612 C.ar    1  UNL1        0.0616
     15 CL        144.8843  143.8172  165.5695 Cl      1  UNL1       -0.0823
     16 C         143.3411  143.2021  163.5719 C.ar    1  UNL1        0.0832
     17 C         142.9623  142.2650  162.4636 C.ar    1  UNL1        0.0194
     18 C         142.5557  144.4611  163.7910 C.3     1  UNL1        0.4194
     19 F         141.7702  145.7201  164.0100 F       1  UNL1       -0.1658
     20 F         141.5501  143.6935  164.5970 F       1  UNL1       -0.1658
     21 F         143.5613  145.2286  162.9849 F       1  UNL1       -0.1658
     22 C         142.1742  136.6726  155.2806 C.3     1  UNL1        0.0735
     23 C         142.4925  135.2111  155.3925 C.3     1  UNL1        0.0320
     24 C         143.7828  134.7702  156.0178 C.3     1  UNL1        0.0042
     25 C         144.1011  133.3087  156.1296 C.3     1  UNL1        0.0174
     26 C         143.1292  132.2879  155.6161 C.3     1  UNL1        0.0720
     27 N         141.8390  132.7288  154.9909 N.3     1  UNL1       -0.2739
     28 C         141.5207  134.1904  154.8791 C.3     1  UNL1        0.0734
     29 C         140.8671  131.7082  154.4774 C.3     1  UNL1        0.0576
     30 C         140.0341  131.1546  153.3596 C.3     1  UNL1        0.0173
     31 C         140.0167  130.4938  154.7060 C.3     1  UNL1        0.0173
@<TRIPOS>BOND
     1     1     2    2
     2     2     3   am
     3     3    11    1
     4    11    12   ar
     5    12    13   ar
     6    13    14   ar
     7    14    15    1
     8    14    16   ar
     9    16    18    1
    10    18    19    1
    11    18    20    1
    12    18    21    1
    13    16    17   ar
    14     2     4   am
    15     4     5    1
    16     5     6    1
    17     6     7    1
    18     7    22    1
    19    23    22    1
    20    23    24    1
    21    24    25    1
    22    25    26    1
    23    26    27    1
    24    27    29    1
    25    29    30    1
    26    30    31    1
    27    27    28    1
    28     7     8    1
    29     8     9    1
    30    17    11   ar
    31     9     4    1
    32    28    23    1
    33    31    29    1
    34     3    10    1
