@<TRIPOS>MOLECULE
*****
 26 28 0 0 0
SMALL
GASTEIGER

@<TRIPOS>ATOM
      1 N         141.0090  145.0415  160.1198 N.3     1  UNL1       -0.2697
      2 C         141.7034  143.8249  160.6562 C.3     1  UNL1        0.0940
      3 C         141.3785  143.3211  162.0313 C.3     1  UNL1        0.1123
      4 N         140.3593  144.0337  162.8698 N.am    1  UNL1       -0.2611
      5 C         140.0345  143.5299  164.2448 C.2     1  UNL1        0.3078
      6 O         139.0152  144.2426  165.0834 O.2     1  UNL1       -0.2522
      7 N         140.7289  142.3133  164.7812 N.am    1  UNL1       -0.2681
      8 C         139.6649  145.2503  162.3334 C.3     1  UNL1        0.1123
      9 C         139.9897  145.7542  160.9585 C.3     1  UNL1        0.0940
     10 H         141.3978  141.8455  164.2308 H       1  UNL1        0.1564
     11 C         140.4040  141.8094  166.1562 C.ar    1  UNL1        0.0525
     12 C         139.7327  140.4790  166.3282 C.ar    1  UNL1        0.0156
     13 C         139.4078  139.9751  167.7032 C.ar    1  UNL1        0.0135
     14 C         139.7542  140.8016  168.9060 C.ar    1  UNL1        0.0683
     15 CL        139.4293  140.2977  170.2811 Cl      1  UNL1       -0.0814
     16 C         140.4255  142.1319  168.7340 C.ar    1  UNL1        0.0694
     17 CL        140.7719  142.9583  169.9370 Cl      1  UNL1       -0.0813
     18 C         140.7504  142.6358  167.3591 C.ar    1  UNL1        0.0270
     19 C         141.3339  145.5454  158.7449 C.3     1  UNL1        0.0735
     20 C         138.0494  142.5826  156.0183 C.3     1  UNL1        0.0896
     21 N         138.6932  143.9134  156.2723 N.3     1  UNL1       -0.2715
     22 C         138.3386  145.0936  155.4171 C.3     1  UNL1        0.0721
     23 C         138.9824  146.4244  155.6711 C.3     1  UNL1        0.0174
     24 C         139.9808  146.5750  156.7804 C.3     1  UNL1        0.0042
     25 C         140.3354  145.3948  157.6356 C.3     1  UNL1        0.0320
     26 C         139.6916  144.0641  157.3816 C.3     1  UNL1        0.0735
@<TRIPOS>BOND
     1    20    21    1
     2    21    22    1
     3    22    23    1
     4    23    24    1
     5    24    25    1
     6    25    19    1
     7    19     1    1
     8     1     2    1
     9     2     3    1
    10     3     4    1
    11     4     5   am
    12     5     6    2
    13     5     7   am
    14     7    11    1
    15    11    12   ar
    16    12    13   ar
    17    13    14   ar
    18    14    15    1
    19    14    16   ar
    20    16    17    1
    21    16    18   ar
    22     4     8    1
    23     8     9    1
    24    25    26    1
    25    26    21    1
    26     9     1    1
    27    18    11   ar
    28     7    10    1
@<TRIPOS>MOLECULE
*****
 26 28 0 0 0
SMALL
GASTEIGER

@<TRIPOS>ATOM
      1 N         141.6476  136.9369  156.7531 N.3     1  UNL1       -0.2697
      2 C         140.2542  137.4898  156.8061 C.3     1  UNL1        0.0940
      3 C         139.8591  138.4228  157.9123 C.3     1  UNL1        0.1123
      4 N         140.8574  138.8029  158.9653 N.am    1  UNL1       -0.2611
      5 C         140.4623  139.7358  160.0714 C.2     1  UNL1        0.3078
      6 O         141.4606  140.1159  161.1246 O.2     1  UNL1       -0.2522
      7 N         139.0689  140.2887  160.1244 N.am    1  UNL1       -0.2681
      8 C         142.2508  138.2499  158.9123 C.3     1  UNL1        0.1123
      9 C         142.6459  137.3170  157.8063 C.3     1  UNL1        0.0940
     10 H         138.4137  140.0393  159.4332 H       1  UNL1        0.1564
     11 C         138.6739  141.2217  161.2306 C.ar    1  UNL1        0.0525
     12 C         137.8273  140.7245  162.3646 C.ar    1  UNL1        0.0156
     13 C         137.4322  141.6574  163.4708 C.ar    1  UNL1        0.0135
     14 C         137.8837  143.0876  163.4428 C.ar    1  UNL1        0.0683
     15 CL        137.4886  144.0206  164.5490 Cl      1  UNL1       -0.0814
     16 C         138.7302  143.5848  162.3087 C.ar    1  UNL1        0.0694
     17 CL        139.1817  145.0150  162.2808 Cl      1  UNL1       -0.0813
     18 C         139.1253  142.6519  161.2026 C.ar    1  UNL1        0.0270
     19 C         142.0427  136.0039  155.6470 C.3     1  UNL1        0.0735
     20 C         145.0550  132.4478  157.9448 C.3     1  UNL1        0.0896
     21 N         143.8633  132.7913  157.1012 N.3     1  UNL1       -0.2715
     22 C         142.9860  131.7003  156.5628 C.3     1  UNL1        0.0721
     23 C         141.7942  132.0438  155.7191 C.3     1  UNL1        0.0174
     24 C         141.4798  133.4783  155.4139 C.3     1  UNL1        0.0042
     25 C         142.3571  134.5693  155.9523 C.3     1  UNL1        0.0320
     26 C         143.5488  134.2258  156.7959 C.3     1  UNL1        0.0735
@<TRIPOS>BOND
     1    20    21    1
     2    21    22    1
     3    22    23    1
     4    23    24    1
     5    24    25    1
     6    25    19    1
     7    19     1    1
     8     1     2    1
     9     2     3    1
    10     3     4    1
    11     4     5   am
    12     5     6    2
    13     5     7   am
    14     7    11    1
    15    11    12   ar
    16    12    13   ar
    17    13    14   ar
    18    14    15    1
    19    14    16   ar
    20    16    17    1
    21    16    18   ar
    22     4     8    1
    23     8     9    1
    24    25    26    1
    25    26    21    1
    26     9     1    1
    27    18    11   ar
    28     7    10    1
@<TRIPOS>MOLECULE
*****
 26 28 0 0 0
SMALL
GASTEIGER

@<TRIPOS>ATOM
      1 N         142.0320  138.0705  158.8551 N.3     1  UNL1       -0.2697
      2 C         140.7802  138.7747  159.2874 C.3     1  UNL1        0.0940
      3 C         140.4990  138.9765  160.7470 C.3     1  UNL1        0.1123
      4 N         141.4697  138.4740  161.7742 N.am    1  UNL1       -0.2611
      5 C         141.1885  138.6758  163.2337 C.2     1  UNL1        0.3078
      6 O         142.1593  138.1733  164.2610 O.2     1  UNL1       -0.2522
      7 N         139.9367  139.3800  163.6660 N.am    1  UNL1       -0.2681
      8 C         142.7216  137.7698  161.3419 C.3     1  UNL1        0.1123
      9 C         143.0028  137.5680  159.8824 C.3     1  UNL1        0.0940
     10 H         139.2995  139.7098  162.9918 H       1  UNL1        0.1564
     11 C         139.6555  139.5817  165.1256 C.ar    1  UNL1        0.0525
     12 C         138.5791  138.7834  165.7993 C.ar    1  UNL1        0.0156
     13 C         138.2979  138.9851  167.2588 C.ar    1  UNL1        0.0135
     14 C         139.0932  139.9851  168.0446 C.ar    1  UNL1        0.0683
     15 CL        138.8120  140.1869  169.5042 Cl      1  UNL1       -0.0814
     16 C         140.1696  140.7834  167.3708 C.ar    1  UNL1        0.0694
     17 CL        140.9649  141.7835  168.1567 Cl      1  UNL1       -0.0813
     18 C         140.4508  140.5817  165.9113 C.ar    1  UNL1        0.0270
     19 C         142.3132  137.8688  157.3956 C.3     1  UNL1        0.0735
     20 C         144.0365  132.9737  157.1333 C.3     1  UNL1        0.0896
     21 N         143.0970  134.0468  156.6686 N.3     1  UNL1       -0.2715
     22 C         142.0799  133.7456  155.6082 C.3     1  UNL1        0.0721
     23 C         141.1404  134.8187  155.1436 C.3     1  UNL1        0.0174
     24 C         141.2182  136.1931  155.7393 C.3     1  UNL1        0.0042
     25 C         142.2354  136.4943  156.7998 C.3     1  UNL1        0.0320
     26 C         143.1748  135.4212  157.2644 C.3     1  UNL1        0.0735
@<TRIPOS>BOND
     1    20    21    1
     2    21    22    1
     3    22    23    1
     4    23    24    1
     5    24    25    1
     6    25    19    1
     7    19     1    1
     8     1     2    1
     9     2     3    1
    10     3     4    1
    11     4     5   am
    12     5     6    2
    13     5     7   am
    14     7    11    1
    15    11    12   ar
    16    12    13   ar
    17    13    14   ar
    18    14    15    1
    19    14    16   ar
    20    16    17    1
    21    16    18   ar
    22     4     8    1
    23     8     9    1
    24    25    26    1
    25    26    21    1
    26     9     1    1
    27    18    11   ar
    28     7    10    1
@<TRIPOS>MOLECULE
*****
 26 28 0 0 0
SMALL
GASTEIGER

@<TRIPOS>ATOM
      1 N         141.7680  136.7343  156.3773 N.3     1  UNL1       -0.2697
      2 C         140.3342  137.1497  156.5245 C.3     1  UNL1        0.0940
      3 C         139.9185  138.0145  157.6776 C.3     1  UNL1        0.1123
      4 N         140.9366  138.4637  158.6834 N.am    1  UNL1       -0.2611
      5 C         140.5209  139.3284  159.8364 C.2     1  UNL1        0.3078
      6 O         141.5390  139.7777  160.8423 O.2     1  UNL1       -0.2522
      7 N         139.0871  139.7438  159.9836 N.am    1  UNL1       -0.2681
      8 C         142.3704  138.0483  158.5362 C.3     1  UNL1        0.1123
      9 C         142.7861  137.1836  157.3832 C.3     1  UNL1        0.0940
     10 H         138.4189  139.4489  159.3235 H       1  UNL1        0.1564
     11 C         138.6714  140.6085  161.1367 C.ar    1  UNL1        0.0525
     12 C         138.3782  142.0629  160.9160 C.ar    1  UNL1        0.0156
     13 C         137.9625  142.9276  162.0690 C.ar    1  UNL1        0.0135
     14 C         137.8401  142.3379  163.4427 C.ar    1  UNL1        0.0683
     15 CL        137.4244  143.2027  164.5958 Cl      1  UNL1       -0.0814
     16 C         138.1334  140.8836  163.6635 C.ar    1  UNL1        0.0694
     17 CL        138.0109  140.2939  165.0373 Cl      1  UNL1       -0.0813
     18 C         138.5490  140.0188  162.5105 C.ar    1  UNL1        0.0270
     19 C         142.1837  135.8696  155.2243 C.3     1  UNL1        0.0735
     20 C         145.1789  131.8541  156.6043 C.3     1  UNL1        0.0896
     21 N         143.8659  132.3864  156.1116 N.3     1  UNL1       -0.2715
     22 C         142.7376  131.4433  155.8163 C.3     1  UNL1        0.0721
     23 C         141.4246  131.9756  155.3237 C.3     1  UNL1        0.0174
     24 C         141.2400  133.4510  155.1263 C.3     1  UNL1        0.0042
     25 C         142.3683  134.3941  155.4216 C.3     1  UNL1        0.0320
     26 C         143.6813  133.8618  155.9143 C.3     1  UNL1        0.0735
@<TRIPOS>BOND
     1    20    21    1
     2    21    22    1
     3    22    23    1
     4    23    24    1
     5    24    25    1
     6    25    19    1
     7    19     1    1
     8     1     2    1
     9     2     3    1
    10     3     4    1
    11     4     5   am
    12     5     6    2
    13     5     7   am
    14     7    11    1
    15    11    12   ar
    16    12    13   ar
    17    13    14   ar
    18    14    15    1
    19    14    16   ar
    20    16    17    1
    21    16    18   ar
    22     4     8    1
    23     8     9    1
    24    25    26    1
    25    26    21    1
    26     9     1    1
    27    18    11   ar
    28     7    10    1
@<TRIPOS>MOLECULE
*****
 26 28 0 0 0
SMALL
GASTEIGER

@<TRIPOS>ATOM
      1 N         140.0482  143.5551  164.6261 N.3     1  UNL1       -0.2697
      2 C         140.9782  144.5773  164.0430 C.3     1  UNL1        0.0940
      3 C         140.9902  144.8228  162.5632 C.3     1  UNL1        0.1123
      4 N         140.0721  144.0461  161.6666 N.am    1  UNL1       -0.2611
      5 C         140.0841  144.2916  160.1870 C.2     1  UNL1        0.3078
      6 O         139.1661  143.5148  159.2903 O.2     1  UNL1       -0.2522
      7 N         141.0142  145.3138  159.6038 N.am    1  UNL1       -0.2681
      8 C         139.1421  143.0238  162.2498 C.3     1  UNL1        0.1123
      9 C         139.1301  142.7783  163.7295 C.3     1  UNL1        0.0940
     10 H         141.6167  145.8236  160.1923 H       1  UNL1        0.1564
     11 C         141.0261  145.5593  158.1240 C.ar    1  UNL1        0.0525
     12 C         142.1309  144.9971  157.2794 C.ar    1  UNL1        0.0156
     13 C         142.1429  145.2426  155.7997 C.ar    1  UNL1        0.0135
     14 C         141.0501  146.0502  155.1646 C.ar    1  UNL1        0.0683
     15 CL        141.0621  146.2957  153.6849 Cl      1  UNL1       -0.0814
     16 C         139.9453  146.6125  156.0092 C.ar    1  UNL1        0.0694
     17 CL        138.8525  147.4202  155.3741 Cl      1  UNL1       -0.0813
     18 C         139.9333  146.3670  157.4889 C.ar    1  UNL1        0.0270
     19 C         140.0362  143.3096  166.1058 C.3     1  UNL1        0.0735
     20 C         140.8492  139.8904  169.9332 C.3     1  UNL1        0.0896
     21 N         141.2255  140.4580  168.5967 N.3     1  UNL1       -0.2715
     22 C         142.3846  139.8836  167.8373 C.3     1  UNL1        0.0721
     23 C         142.7609  140.4512  166.5008 C.3     1  UNL1        0.0174
     24 C         141.9781  141.5932  165.9237 C.3     1  UNL1        0.0042
     25 C         140.8191  142.1675  166.6830 C.3     1  UNL1        0.0320
     26 C         140.4428  141.5999  168.0195 C.3     1  UNL1        0.0735
@<TRIPOS>BOND
     1    20    21    1
     2    21    22    1
     3    22    23    1
     4    23    24    1
     5    24    25    1
     6    25    19    1
     7    19     1    1
     8     1     2    1
     9     2     3    1
    10     3     4    1
    11     4     5   am
    12     5     6    2
    13     5     7   am
    14     7    11    1
    15    11    12   ar
    16    12    13   ar
    17    13    14   ar
    18    14    15    1
    19    14    16   ar
    20    16    17    1
    21    16    18   ar
    22     4     8    1
    23     8     9    1
    24    25    26    1
    25    26    21    1
    26     9     1    1
    27    18    11   ar
    28     7    10    1
@<TRIPOS>MOLECULE
*****
 26 28 0 0 0
SMALL
GASTEIGER

@<TRIPOS>ATOM
      1 N         142.5603  141.6875  158.9022 N.3     1  UNL1       -0.2697
      2 C         141.6936  140.4974  159.1893 C.3     1  UNL1        0.0940
      3 C         141.9409  139.2004  158.4775 C.3     1  UNL1        0.1123
      4 N         143.0548  139.0935  157.4787 N.am    1  UNL1       -0.2611
      5 C         143.3021  137.7964  156.7670 C.2     1  UNL1        0.3078
      6 O         144.4161  137.6895  155.7682 O.2     1  UNL1       -0.2522
      7 N         142.4353  136.6063  157.0541 N.am    1  UNL1       -0.2681
      8 C         143.9216  140.2836  157.1917 C.3     1  UNL1        0.1123
      9 C         143.6744  141.5806  157.9034 C.3     1  UNL1        0.0940
     10 H         141.7042  136.6765  157.7096 H       1  UNL1        0.1564
     11 C         142.6826  135.3093  156.3423 C.ar    1  UNL1        0.0525
     12 C         141.8973  134.9680  155.1108 C.ar    1  UNL1        0.0156
     13 C         142.1445  133.6710  154.3990 C.ar    1  UNL1        0.0135
     14 C         143.1771  132.7153  154.9188 C.ar    1  UNL1        0.0683
     15 CL        143.4244  131.4182  154.2070 Cl      1  UNL1       -0.0814
     16 C         143.9625  133.0565  156.1504 C.ar    1  UNL1        0.0694
     17 CL        144.9951  132.1007  156.6702 Cl      1  UNL1       -0.0813
     18 C         143.7152  134.3535  156.8621 C.ar    1  UNL1        0.0270
     19 C         142.3131  142.9846  159.6139 C.3     1  UNL1        0.0735
     20 C         145.7394  141.7141  163.3081 C.3     1  UNL1        0.0896
     21 N         144.6220  142.5861  162.8171 N.3     1  UNL1       -0.2715
     22 C         144.1003  143.6949  163.6822 C.3     1  UNL1        0.0721
     23 C         142.9829  144.5668  163.1913 C.3     1  UNL1        0.0174
     24 C         142.3871  144.3301  161.8352 C.3     1  UNL1        0.0042
     25 C         142.9088  143.2214  160.9701 C.3     1  UNL1        0.0320
     26 C         144.0262  142.3494  161.4610 C.3     1  UNL1        0.0735
@<TRIPOS>BOND
     1    20    21    1
     2    21    22    1
     3    22    23    1
     4    23    24    1
     5    24    25    1
     6    25    19    1
     7    19     1    1
     8     1     2    1
     9     2     3    1
    10     3     4    1
    11     4     5   am
    12     5     6    2
    13     5     7   am
    14     7    11    1
    15    11    12   ar
    16    12    13   ar
    17    13    14   ar
    18    14    15    1
    19    14    16   ar
    20    16    17    1
    21    16    18   ar
    22     4     8    1
    23     8     9    1
    24    25    26    1
    25    26    21    1
    26     9     1    1
    27    18    11   ar
    28     7    10    1
@<TRIPOS>MOLECULE
*****
 26 28 0 0 0
SMALL
GASTEIGER

@<TRIPOS>ATOM
      1 N         142.0942  139.3065  159.3467 N.3     1  UNL1       -0.2697
      2 C         141.0025  139.6745  160.3073 C.3     1  UNL1        0.0940
      3 C         141.3286  139.9407  161.7471 C.3     1  UNL1        0.1123
      4 N         142.7464  139.8389  162.2262 N.am    1  UNL1       -0.2611
      5 C         143.0724  140.1051  163.6659 C.2     1  UNL1        0.3078
      6 O         144.4903  140.0034  164.1450 O.2     1  UNL1       -0.2522
      7 N         141.9807  140.4731  164.6265 N.am    1  UNL1       -0.2681
      8 C         143.8381  139.4710  161.2655 C.3     1  UNL1        0.1123
      9 C         143.5120  139.2048  159.8258 C.3     1  UNL1        0.0940
     10 H         141.0502  140.5399  164.3121 H       1  UNL1        0.1564
     11 C         142.3068  140.7393  166.0663 C.ar    1  UNL1        0.0525
     12 C         142.6495  142.1296  166.5130 C.ar    1  UNL1        0.0156
     13 C         142.9756  142.3959  167.9526 C.ar    1  UNL1        0.0135
     14 C         142.9591  141.2717  168.9456 C.ar    1  UNL1        0.0683
     15 CL        143.2852  141.5379  170.3854 Cl      1  UNL1       -0.0814
     16 C         142.6164  139.8814  168.4989 C.ar    1  UNL1        0.0694
     17 CL        142.5999  138.7573  169.4920 Cl      1  UNL1       -0.0813
     18 C         142.2903  139.6152  167.0592 C.ar    1  UNL1        0.0270
     19 C         141.7681  139.0404  157.9070 C.3     1  UNL1        0.0735
     20 C         143.3506  134.1332  157.2618 C.3     1  UNL1        0.0896
     21 N         143.3425  135.5650  156.8146 N.3     1  UNL1       -0.2715
     22 C         144.1175  135.9749  155.5975 C.3     1  UNL1        0.0721
     23 C         144.1094  137.4067  155.1503 C.3     1  UNL1        0.0174
     24 C         143.3263  138.4285  155.9201 C.3     1  UNL1        0.0042
     25 C         142.5513  138.0185  157.1371 C.3     1  UNL1        0.0320
     26 C         142.5594  136.5868  157.5844 C.3     1  UNL1        0.0735
@<TRIPOS>BOND
     1    20    21    1
     2    21    22    1
     3    22    23    1
     4    23    24    1
     5    24    25    1
     6    25    19    1
     7    19     1    1
     8     1     2    1
     9     2     3    1
    10     3     4    1
    11     4     5   am
    12     5     6    2
    13     5     7   am
    14     7    11    1
    15    11    12   ar
    16    12    13   ar
    17    13    14   ar
    18    14    15    1
    19    14    16   ar
    20    16    17    1
    21    16    18   ar
    22     4     8    1
    23     8     9    1
    24    25    26    1
    25    26    21    1
    26     9     1    1
    27    18    11   ar
    28     7    10    1
@<TRIPOS>MOLECULE
*****
 26 28 0 0 0
SMALL
GASTEIGER

@<TRIPOS>ATOM
      1 N         141.6652  144.8351  159.2086 N.3     1  UNL1       -0.2697
      2 C         140.6402  145.2386  160.2267 C.3     1  UNL1        0.0940
      3 C         140.5349  144.4902  161.5224 C.3     1  UNL1        0.1123
      4 N         141.4548  143.3383  161.8001 N.am    1  UNL1       -0.2611
      5 C         141.3495  142.5900  163.0957 C.2     1  UNL1        0.3078
      6 O         142.2694  141.4381  163.3734 O.2     1  UNL1       -0.2522
      7 N         140.3244  142.9935  164.1138 N.am    1  UNL1       -0.2681
      8 C         142.4798  142.9349  160.7820 C.3     1  UNL1        0.1123
      9 C         142.5851  143.6832  159.4863 C.3     1  UNL1        0.0940
     10 H         139.7207  143.7495  163.9316 H       1  UNL1        0.1564
     11 C         140.2192  142.2450  165.4095 C.ar    1  UNL1        0.0525
     12 C         140.9813  142.7170  166.6122 C.ar    1  UNL1        0.0156
     13 C         140.8761  141.9686  167.9079 C.ar    1  UNL1        0.0135
     14 C         140.0089  140.7483  168.0009 C.ar    1  UNL1        0.0683
     15 CL        139.9036  139.9999  169.2966 Cl      1  UNL1       -0.0814
     16 C         139.2468  140.2764  166.7982 C.ar    1  UNL1        0.0694
     17 CL        138.3795  139.0560  166.8912 Cl      1  UNL1       -0.0813
     18 C         139.3520  141.0247  165.5025 C.ar    1  UNL1        0.0270
     19 C         141.7705  145.5835  157.9130 C.3     1  UNL1        0.0735
     20 C         138.3260  143.0855  154.9305 C.3     1  UNL1        0.0896
     21 N         138.8834  144.3663  155.4772 N.3     1  UNL1       -0.2715
     22 C         138.2759  145.6788  155.0794 C.3     1  UNL1        0.0721
     23 C         138.8333  146.9596  155.6261 C.3     1  UNL1        0.0174
     24 C         139.9982  146.9278  156.5706 C.3     1  UNL1        0.0042
     25 C         140.6056  145.6153  156.9684 C.3     1  UNL1        0.0320
     26 C         140.0482  144.3345  156.4217 C.3     1  UNL1        0.0735
@<TRIPOS>BOND
     1    20    21    1
     2    21    22    1
     3    22    23    1
     4    23    24    1
     5    24    25    1
     6    25    19    1
     7    19     1    1
     8     1     2    1
     9     2     3    1
    10     3     4    1
    11     4     5   am
    12     5     6    2
    13     5     7   am
    14     7    11    1
    15    11    12   ar
    16    12    13   ar
    17    13    14   ar
    18    14    15    1
    19    14    16   ar
    20    16    17    1
    21    16    18   ar
    22     4     8    1
    23     8     9    1
    24    25    26    1
    25    26    21    1
    26     9     1    1
    27    18    11   ar
    28     7    10    1
@<TRIPOS>MOLECULE
*****
 26 28 0 0 0
SMALL
GASTEIGER

@<TRIPOS>ATOM
      1 N         140.0631  140.3695  165.2004 N.3     1  UNL1       -0.2697
      2 C         141.1086  140.4329  164.1266 C.3     1  UNL1        0.0940
      3 C         140.8625  141.2408  162.8869 C.3     1  UNL1        0.1123
      4 N         139.5709  141.9852  162.7210 N.am    1  UNL1       -0.2611
      5 C         139.3248  142.7930  161.4813 C.2     1  UNL1        0.3078
      6 O         138.0331  143.5375  161.3153 O.2     1  UNL1       -0.2522
      7 N         140.3703  142.8564  160.4075 N.am    1  UNL1       -0.2681
      8 C         138.5254  141.9218  163.7947 C.3     1  UNL1        0.1123
      9 C         138.7715  141.1140  165.0344 C.3     1  UNL1        0.0940
     10 H         141.2180  142.3678  160.5164 H       1  UNL1        0.1564
     11 C         140.1241  143.6642  159.1678 C.ar    1  UNL1        0.0525
     12 C         140.5790  145.0920  159.1004 C.ar    1  UNL1        0.0156
     13 C         140.3329  145.8999  157.8608 C.ar    1  UNL1        0.0135
     14 C         139.6318  145.2800  156.6886 C.ar    1  UNL1        0.0683
     15 CL        139.3857  146.0878  155.4488 Cl      1  UNL1       -0.0814
     16 C         139.1769  143.8522  156.7559 C.ar    1  UNL1        0.0694
     17 CL        138.4759  143.2323  155.5836 Cl      1  UNL1       -0.0813
     18 C         139.4231  143.0443  157.9956 C.ar    1  UNL1        0.0270
     19 C         140.3093  139.5617  166.4400 C.3     1  UNL1        0.0735
     20 C         143.2528  142.3654  169.6765 C.3     1  UNL1        0.0896
     21 N         141.9674  141.6524  169.3777 N.3     1  UNL1       -0.2715
     22 C         140.8683  141.6283  170.3981 C.3     1  UNL1        0.0721
     23 C         139.5829  140.9153  170.0993 C.3     1  UNL1        0.0174
     24 C         139.3965  140.2264  168.7799 C.3     1  UNL1        0.0042
     25 C         140.4956  140.2506  167.7595 C.3     1  UNL1        0.0320
     26 C         141.7810  140.9636  168.0583 C.3     1  UNL1        0.0735
@<TRIPOS>BOND
     1    20    21    1
     2    21    22    1
     3    22    23    1
     4    23    24    1
     5    24    25    1
     6    25    19    1
     7    19     1    1
     8     1     2    1
     9     2     3    1
    10     3     4    1
    11     4     5   am
    12     5     6    2
    13     5     7   am
    14     7    11    1
    15    11    12   ar
    16    12    13   ar
    17    13    14   ar
    18    14    15    1
    19    14    16   ar
    20    16    17    1
    21    16    18   ar
    22     4     8    1
    23     8     9    1
    24    25    26    1
    25    26    21    1
    26     9     1    1
    27    18    11   ar
    28     7    10    1
