@<TRIPOS>MOLECULE
*****
 28 31 0 0 0
SMALL
GASTEIGER

@<TRIPOS>ATOM
      1 C         137.3255  140.8702  162.5686 C.3     1  UNL1        0.0233
      2 C         138.2070  141.2561  163.7193 C.3     1  UNL1        0.0956
      3 C         138.2834  140.3780  164.9330 C.3     1  UNL1        0.1135
      4 N         139.1648  140.7640  166.0837 N.am    1  UNL1       -0.2726
      5 C         139.2412  139.8858  167.2974 C.2     1  UNL1        0.2491
      6 O         138.4360  138.6217  167.3604 O.2     1  UNL1       -0.2699
      7 C         139.9700  142.0280  166.0207 C.3     1  UNL1        0.1152
      8 C         139.8936  142.9061  164.8070 C.3     1  UNL1        0.1153
      9 N         139.0121  142.5201  163.6563 N.am    1  UNL1       -0.2716
     10 C         138.9357  143.3982  162.4426 C.2     1  UNL1        0.2883
     11 O         138.0542  143.0123  161.2919 O.2     1  UNL1       -0.2664
     12 C         140.1226  140.2717  168.4480 C.ar    1  UNL1        0.0536
     13 C         141.5691  139.8747  168.4509 C.ar    1  UNL1        0.0045
     14 C         142.4506  140.2606  169.6015 C.ar    1  UNL1        0.0001
     15 C         141.8856  141.0436  170.7494 C.ar    1  UNL1        0.0000
     16 C         140.4391  141.4406  170.7466 C.ar    1  UNL1        0.0001
     17 C         139.5576  141.0547  169.5959 C.ar    1  UNL1        0.0045
     18 C         139.7409  144.6623  162.3795 C.2     1  UNL1        0.2502
     19 O         139.0659  145.9670  162.0762 O.2     1  UNL1       -0.2816
     20 C         141.2210  144.6216  162.6199 C.2     1  UNL1        0.0653
     21 C         141.9795  145.4719  163.5954 C.2     1  UNL1        0.1018
     22 N         143.4297  145.0992  163.5052 N.2     1  UNL1       -0.2476
     23 C         143.5674  144.0186  162.4740 C.2     1  UNL1        0.0666
     24 C         144.7594  143.2652  161.9626 C.3     1  UNL1        0.0927
     25 C         144.5863  142.2167  160.9041 C.2     1  UNL1        0.0788
     26 N         143.2212  141.9216  160.3569 N.2     1  UNL1       -0.2465
     27 C         142.0292  142.6749  160.8682 C.2     1  UNL1        0.0998
     28 C         142.2023  143.7234  161.9268 C.2     1  UNL1        0.0378
@<TRIPOS>BOND
     1     2     1    1
     2     2     3    1
     3     3     4    1
     4     4     5   am
     5     5     6    2
     6     5    12    1
     7    12    13   ar
     8    13    14   ar
     9    14    15   ar
    10    15    16   ar
    11    16    17   ar
    12     4     7    1
    13     7     8    1
    14     8     9    1
    15     9    10   am
    16    10    11    2
    17    10    18    1
    18    18    19    2
    19    18    20    1
    20    20    21    2
    21    21    22    1
    22    22    23    2
    23    23    24    1
    24    24    25    1
    25    25    26    2
    26    26    27    1
    27    27    28    2
    28     9     2    1
    29    28    20    1
    30    17    12   ar
    31    28    23    1
@<TRIPOS>MOLECULE
*****
 28 31 0 0 0
SMALL
GASTEIGER

@<TRIPOS>ATOM
      1 C         137.4339  141.0867  162.8383 C.3     1  UNL1        0.0233
      2 C         138.4484  141.6885  163.7649 C.3     1  UNL1        0.0956
      3 C         138.6724  141.0905  165.1222 C.3     1  UNL1        0.1135
      4 N         139.6870  141.6923  166.0488 N.am    1  UNL1       -0.2726
      5 C         139.9109  141.0942  167.4060 C.2     1  UNL1        0.2491
      6 O         139.1204  139.8943  167.8367 O.2     1  UNL1       -0.2699
      7 C         140.4775  142.8921  165.6181 C.3     1  UNL1        0.1152
      8 C         140.2535  143.4901  164.2609 C.3     1  UNL1        0.1153
      9 N         139.2389  142.8883  163.3343 N.am    1  UNL1       -0.2716
     10 C         139.0149  143.4863  161.9770 C.2     1  UNL1        0.2883
     11 O         138.0004  142.8845  161.0505 O.2     1  UNL1       -0.2664
     12 C         140.9255  141.6960  168.3326 C.ar    1  UNL1        0.0536
     13 C         142.3149  141.1337  168.3907 C.ar    1  UNL1        0.0045
     14 C         143.3294  141.7355  169.3173 C.ar    1  UNL1        0.0001
     15 C         142.9545  142.8996  170.1858 C.ar    1  UNL1        0.0000
     16 C         141.5652  143.4619  170.1277 C.ar    1  UNL1        0.0001
     17 C         140.5506  142.8601  169.2011 C.ar    1  UNL1        0.0045
     18 C         139.8054  144.6862  161.5463 C.2     1  UNL1        0.2502
     19 O         139.5447  146.0219  162.1770 O.2     1  UNL1       -0.2816
     20 C         140.8567  144.5503  160.4850 C.2     1  UNL1        0.0653
     21 C         141.0787  145.4913  159.3382 C.2     1  UNL1        0.1018
     22 N         142.2297  144.9720  158.5286 N.2     1  UNL1       -0.2476
     23 C         142.7191  143.7100  159.1751 C.2     1  UNL1        0.0666
     24 C         143.8278  142.7645  158.8189 C.3     1  UNL1        0.0927
     25 C         144.0879  141.5584  159.6719 C.2     1  UNL1        0.0788
     26 N         143.2393  141.2978  160.8810 N.2     1  UNL1       -0.2465
     27 C         142.1306  142.2432  161.2372 C.2     1  UNL1        0.0998
     28 C         141.8705  143.4493  160.3842 C.2     1  UNL1        0.0378
@<TRIPOS>BOND
     1     2     1    1
     2     2     3    1
     3     3     4    1
     4     4     5   am
     5     5     6    2
     6     5    12    1
     7    12    13   ar
     8    13    14   ar
     9    14    15   ar
    10    15    16   ar
    11    16    17   ar
    12     4     7    1
    13     7     8    1
    14     8     9    1
    15     9    10   am
    16    10    11    2
    17    10    18    1
    18    18    19    2
    19    18    20    1
    20    20    21    2
    21    21    22    1
    22    22    23    2
    23    23    24    1
    24    24    25    1
    25    25    26    2
    26    26    27    1
    27    27    28    2
    28     9     2    1
    29    28    20    1
    30    17    12   ar
    31    28    23    1
@<TRIPOS>MOLECULE
*****
 28 31 0 0 0
SMALL
GASTEIGER

@<TRIPOS>ATOM
      1 C         137.5899  140.4177  162.9296 C.3     1  UNL1        0.0233
      2 C         138.5216  141.1547  163.8456 C.3     1  UNL1        0.0956
      3 C         138.7853  140.6317  165.2265 C.3     1  UNL1        0.1135
      4 N         139.7169  141.3686  166.1424 N.am    1  UNL1       -0.2726
      5 C         139.9805  140.8455  167.5233 C.2     1  UNL1        0.2491
      6 O         139.3126  139.5856  167.9883 O.2     1  UNL1       -0.2699
      7 C         140.3849  142.6286  165.6775 C.3     1  UNL1        0.1152
      8 C         140.1212  143.1516  164.2965 C.3     1  UNL1        0.1153
      9 N         139.1896  142.4146  163.3806 N.am    1  UNL1       -0.2716
     10 C         138.9259  142.9377  161.9997 C.2     1  UNL1        0.2883
     11 O         137.9942  142.2007  161.0838 O.2     1  UNL1       -0.2664
     12 C         140.9122  141.5825  168.4392 C.ar    1  UNL1        0.0536
     13 C         142.3355  141.1314  168.5828 C.ar    1  UNL1        0.0045
     14 C         143.2671  141.8684  169.4987 C.ar    1  UNL1        0.0001
     15 C         142.7754  143.0565  170.2711 C.ar    1  UNL1        0.0000
     16 C         141.3521  143.5076  170.1276 C.ar    1  UNL1        0.0001
     17 C         140.4205  142.7706  169.2117 C.ar    1  UNL1        0.0045
     18 C         139.5939  144.1977  161.5347 C.2     1  UNL1        0.2502
     19 O         139.0784  145.5312  161.9884 O.2     1  UNL1       -0.2816
     20 C         140.7773  144.1241  160.6159 C.2     1  UNL1        0.0653
     21 C         142.0526  143.3794  160.8788 C.2     1  UNL1        0.1018
     22 N         142.9566  143.5774  159.6983 N.2     1  UNL1       -0.2476
     23 C         142.2401  144.4444  158.7059 C.2     1  UNL1        0.0666
     24 C         142.6401  144.9699  157.3591 C.3     1  UNL1        0.0927
     25 C         141.6932  145.8332  156.5795 C.2     1  UNL1        0.0788
     26 N         140.3463  146.1711  157.1466 N.2     1  UNL1       -0.2465
     27 C         139.9463  145.6457  158.4934 C.2     1  UNL1        0.0998
     28 C         140.8932  144.7823  159.2731 C.2     1  UNL1        0.0378
@<TRIPOS>BOND
     1     2     1    1
     2     2     3    1
     3     3     4    1
     4     4     5   am
     5     5     6    2
     6     5    12    1
     7    12    13   ar
     8    13    14   ar
     9    14    15   ar
    10    15    16   ar
    11    16    17   ar
    12     4     7    1
    13     7     8    1
    14     8     9    1
    15     9    10   am
    16    10    11    2
    17    10    18    1
    18    18    19    2
    19    18    20    1
    20    20    21    2
    21    21    22    1
    22    22    23    2
    23    23    24    1
    24    24    25    1
    25    25    26    2
    26    26    27    1
    27    27    28    2
    28     9     2    1
    29    28    20    1
    30    17    12   ar
    31    28    23    1
@<TRIPOS>MOLECULE
*****
 28 31 0 0 0
SMALL
GASTEIGER

@<TRIPOS>ATOM
      1 C         142.2442  137.7827  162.8716 C.3     1  UNL1        0.0233
      2 C         141.6416  138.7900  163.8055 C.3     1  UNL1        0.0956
      3 C         142.0816  138.8413  165.2386 C.3     1  UNL1        0.1135
      4 N         141.4790  139.8486  166.1726 N.am    1  UNL1       -0.2726
      5 C         141.9191  139.8999  167.6057 C.2     1  UNL1        0.2491
      6 O         142.9617  138.9440  168.1049 O.2     1  UNL1       -0.2699
      7 C         140.4364  140.8045  165.6735 C.3     1  UNL1        0.1152
      8 C         139.9964  140.7532  164.2404 C.3     1  UNL1        0.1153
      9 N         140.5990  139.7459  163.3065 N.am    1  UNL1       -0.2716
     10 C         140.1590  139.6946  161.8734 C.2     1  UNL1        0.2883
     11 O         140.7616  138.6873  160.9394 O.2     1  UNL1       -0.2664
     12 C         141.3165  140.9072  168.5396 C.ar    1  UNL1        0.0536
     13 C         141.9963  142.2259  168.7607 C.ar    1  UNL1        0.0045
     14 C         141.3937  143.2331  169.6946 C.ar    1  UNL1        0.0001
     15 C         140.1112  142.9217  170.4076 C.ar    1  UNL1        0.0000
     16 C         139.4314  141.6030  170.1866 C.ar    1  UNL1        0.0001
     17 C         140.0340  140.5957  169.2526 C.ar    1  UNL1        0.0045
     18 C         139.1164  140.6505  161.3742 C.2     1  UNL1        0.2502
     19 O         137.6630  140.3671  161.6135 O.2     1  UNL1       -0.2816
     20 C         139.5272  141.8899  160.6358 C.2     1  UNL1        0.0653
     21 C         139.9862  141.9549  159.2093 C.2     1  UNL1        0.1018
     22 N         140.2938  143.3871  158.8862 N.2     1  UNL1       -0.2476
     23 C         140.0249  144.2071  160.1131 C.2     1  UNL1        0.0666
     24 C         140.1502  145.6769  160.3853 C.3     1  UNL1        0.0927
     25 C         139.8017  146.2213  161.7388 C.2     1  UNL1        0.0788
     26 N         139.3279  145.2960  162.8201 N.2     1  UNL1       -0.2465
     27 C         139.2026  143.8263  162.5479 C.2     1  UNL1        0.0998
     28 C         139.5511  143.2818  161.1944 C.2     1  UNL1        0.0378
@<TRIPOS>BOND
     1     2     1    1
     2     2     3    1
     3     3     4    1
     4     4     5   am
     5     5     6    2
     6     5    12    1
     7    12    13   ar
     8    13    14   ar
     9    14    15   ar
    10    15    16   ar
    11    16    17   ar
    12     4     7    1
    13     7     8    1
    14     8     9    1
    15     9    10   am
    16    10    11    2
    17    10    18    1
    18    18    19    2
    19    18    20    1
    20    20    21    2
    21    21    22    1
    22    22    23    2
    23    23    24    1
    24    24    25    1
    25    25    26    2
    26    26    27    1
    27    27    28    2
    28     9     2    1
    29    28    20    1
    30    17    12   ar
    31    28    23    1
@<TRIPOS>MOLECULE
*****
 28 31 0 0 0
SMALL
GASTEIGER

@<TRIPOS>ATOM
      1 C         141.3394  138.2077  162.5891 C.3     1  UNL1        0.0233
      2 C         141.1420  139.0864  163.7886 C.3     1  UNL1        0.0956
      3 C         141.9390  138.8431  165.0359 C.3     1  UNL1        0.1135
      4 N         141.7416  139.7218  166.2354 N.am    1  UNL1       -0.2726
      5 C         142.5387  139.4784  167.4827 C.2     1  UNL1        0.2491
      6 O         143.5330  138.3564  167.5304 O.2     1  UNL1       -0.2699
      7 C         140.7473  140.8438  166.1878 C.3     1  UNL1        0.1152
      8 C         139.9503  141.0871  164.9406 C.3     1  UNL1        0.1153
      9 N         140.1477  140.2084  163.7410 N.am    1  UNL1       -0.2716
     10 C         139.3507  140.4517  162.4938 C.2     1  UNL1        0.2883
     11 O         139.5481  139.5730  161.2942 O.2     1  UNL1       -0.2664
     12 C         142.3413  140.3571  168.6822 C.ar    1  UNL1        0.0536
     13 C         143.0893  141.6524  168.7944 C.ar    1  UNL1        0.0045
     14 C         142.8919  142.5311  169.9939 C.ar    1  UNL1        0.0001
     15 C         141.9464  142.1145  171.0814 C.ar    1  UNL1        0.0000
     16 C         141.1985  140.8192  170.9692 C.ar    1  UNL1        0.0001
     17 C         141.3958  139.9405  169.7697 C.ar    1  UNL1        0.0045
     18 C         138.3563  141.5738  162.4461 C.2     1  UNL1        0.2502
     19 O         136.9117  141.3090  162.7508 O.2     1  UNL1       -0.2816
     20 C         138.8066  142.9605  162.0937 C.2     1  UNL1        0.0653
     21 C         138.4319  144.2198  162.8174 C.2     1  UNL1        0.1018
     22 N         139.1044  145.3690  162.1266 N.2     1  UNL1       -0.2476
     23 C         139.8947  144.8199  160.9760 C.2     1  UNL1        0.0666
     24 C         140.7582  145.4831  159.9442 C.3     1  UNL1        0.0927
     25 C         141.4376  144.6577  158.8920 C.2     1  UNL1        0.0788
     26 N         141.2535  143.1691  158.8717 N.2     1  UNL1       -0.2465
     27 C         140.3901  142.5060  159.9035 C.2     1  UNL1        0.0998
     28 C         139.7107  143.3314  160.9556 C.2     1  UNL1        0.0378
@<TRIPOS>BOND
     1     2     1    1
     2     2     3    1
     3     3     4    1
     4     4     5   am
     5     5     6    2
     6     5    12    1
     7    12    13   ar
     8    13    14   ar
     9    14    15   ar
    10    15    16   ar
    11    16    17   ar
    12     4     7    1
    13     7     8    1
    14     8     9    1
    15     9    10   am
    16    10    11    2
    17    10    18    1
    18    18    19    2
    19    18    20    1
    20    20    21    2
    21    21    22    1
    22    22    23    2
    23    23    24    1
    24    24    25    1
    25    25    26    2
    26    26    27    1
    27    27    28    2
    28     9     2    1
    29    28    20    1
    30    17    12   ar
    31    28    23    1
@<TRIPOS>MOLECULE
*****
 28 31 0 0 0
SMALL
GASTEIGER

@<TRIPOS>ATOM
      1 C         138.6190  138.5198  162.9831 C.3     1  UNL1        0.0233
      2 C         139.4136  139.2303  164.0385 C.3     1  UNL1        0.0956
      3 C         138.9867  139.1578  165.4747 C.3     1  UNL1        0.1135
      4 N         139.7813  139.8683  166.5300 N.am    1  UNL1       -0.2726
      5 C         139.3544  139.7957  167.9662 C.2     1  UNL1        0.2491
      6 O         138.1330  139.0126  168.3470 O.2     1  UNL1       -0.2699
      7 C         141.0027  140.6513  166.1494 C.3     1  UNL1        0.1152
      8 C         141.4295  140.7239  164.7132 C.3     1  UNL1        0.1153
      9 N         140.6350  140.0134  163.6578 N.am    1  UNL1       -0.2716
     10 C         141.0618  140.0859  162.2216 C.2     1  UNL1        0.2883
     11 O         140.2672  139.3754  161.1663 O.2     1  UNL1       -0.2664
     12 C         140.1490  140.5062  169.0216 C.ar    1  UNL1        0.0536
     13 C         139.8546  141.9414  169.3430 C.ar    1  UNL1        0.0045
     14 C         140.6492  142.6519  170.3984 C.ar    1  UNL1        0.0001
     15 C         141.7382  141.9272  171.1324 C.ar    1  UNL1        0.0000
     16 C         142.0325  140.4919  170.8110 C.ar    1  UNL1        0.0001
     17 C         141.2379  139.7814  169.7557 C.ar    1  UNL1        0.0045
     18 C         142.2833  140.8690  161.8409 C.2     1  UNL1        0.2502
     19 O         143.6479  140.3161  162.1270 O.2     1  UNL1       -0.2816
     20 C         142.1399  142.2050  161.1740 C.2     1  UNL1        0.0653
     21 C         142.8988  142.6745  159.9683 C.2     1  UNL1        0.1018
     22 N         142.4404  144.0656  159.6449 N.2     1  UNL1       -0.2476
     23 C         141.3983  144.4559  160.6508 C.2     1  UNL1        0.0666
     24 C         140.5945  145.7099  160.8282 C.3     1  UNL1        0.0927
     25 C         139.6050  145.8138  161.9507 C.2     1  UNL1        0.0788
     26 N         139.4194  144.6639  162.8958 N.2     1  UNL1       -0.2465
     27 C         140.2231  143.4099  162.7183 C.2     1  UNL1        0.0998
     28 C         141.2126  143.3060  161.5958 C.2     1  UNL1        0.0378
@<TRIPOS>BOND
     1     2     1    1
     2     2     3    1
     3     3     4    1
     4     4     5   am
     5     5     6    2
     6     5    12    1
     7    12    13   ar
     8    13    14   ar
     9    14    15   ar
    10    15    16   ar
    11    16    17   ar
    12     4     7    1
    13     7     8    1
    14     8     9    1
    15     9    10   am
    16    10    11    2
    17    10    18    1
    18    18    19    2
    19    18    20    1
    20    20    21    2
    21    21    22    1
    22    22    23    2
    23    23    24    1
    24    24    25    1
    25    25    26    2
    26    26    27    1
    27    27    28    2
    28     9     2    1
    29    28    20    1
    30    17    12   ar
    31    28    23    1
@<TRIPOS>MOLECULE
*****
 28 31 0 0 0
SMALL
GASTEIGER

@<TRIPOS>ATOM
      1 C         144.6738  139.8868  162.9223 C.3     1  UNL1        0.0233
      2 C         143.9276  140.6115  164.0031 C.3     1  UNL1        0.0956
      3 C         143.6729  139.9387  165.3193 C.3     1  UNL1        0.1135
      4 N         142.9268  140.6633  166.4001 N.am    1  UNL1       -0.2726
      5 C         142.6721  139.9904  167.7163 C.2     1  UNL1        0.2491
      6 O         143.1635  138.5929  167.9517 O.2     1  UNL1       -0.2699
      7 C         142.4354  142.0609  166.1647 C.3     1  UNL1        0.1152
      8 C         142.6901  142.7337  164.8485 C.3     1  UNL1        0.1153
      9 N         143.4362  142.0090  163.7677 N.am    1  UNL1       -0.2716
     10 C         143.6910  142.6818  162.4515 C.2     1  UNL1        0.2883
     11 O         144.4371  141.9571  161.3707 O.2     1  UNL1       -0.2664
     12 C         141.9260  140.7151  168.7971 C.ar    1  UNL1        0.0536
     13 C         142.6733  141.5513  169.7932 C.ar    1  UNL1        0.0045
     14 C         141.9271  142.2760  170.8740 C.ar    1  UNL1        0.0001
     15 C         140.4337  142.1645  170.9587 C.ar    1  UNL1        0.0000
     16 C         139.6864  141.3284  169.9625 C.ar    1  UNL1        0.0001
     17 C         140.4325  140.6037  168.8817 C.ar    1  UNL1        0.0045
     18 C         143.1995  144.0794  162.2161 C.2     1  UNL1        0.2502
     19 O         143.9556  145.2453  162.7808 O.2     1  UNL1       -0.2816
     20 C         141.9521  144.3110  161.4159 C.2     1  UNL1        0.0653
     21 C         140.6430  144.8127  161.9492 C.2     1  UNL1        0.1018
     22 N         139.6766  144.8933  160.8048 N.2     1  UNL1       -0.2476
     23 C         140.3885  144.4414  159.5642 C.2     1  UNL1        0.0666
     24 C         139.9378  144.3111  158.1395 C.3     1  UNL1        0.0927
     25 C         140.8935  143.8209  157.0925 C.2     1  UNL1        0.0788
     26 N         142.2999  143.4610  157.4702 N.2     1  UNL1       -0.2465
     27 C         142.7506  143.5913  158.8949 C.2     1  UNL1        0.0998
     28 C         141.7949  144.0815  159.9419 C.2     1  UNL1        0.0378
@<TRIPOS>BOND
     1     2     1    1
     2     2     3    1
     3     3     4    1
     4     4     5   am
     5     5     6    2
     6     5    12    1
     7    12    13   ar
     8    13    14   ar
     9    14    15   ar
    10    15    16   ar
    11    16    17   ar
    12     4     7    1
    13     7     8    1
    14     8     9    1
    15     9    10   am
    16    10    11    2
    17    10    18    1
    18    18    19    2
    19    18    20    1
    20    20    21    2
    21    21    22    1
    22    22    23    2
    23    23    24    1
    24    24    25    1
    25    25    26    2
    26    26    27    1
    27    27    28    2
    28     9     2    1
    29    28    20    1
    30    17    12   ar
    31    28    23    1
@<TRIPOS>MOLECULE
*****
 28 31 0 0 0
SMALL
GASTEIGER

@<TRIPOS>ATOM
      1 C         144.2587  139.0457  162.7424 C.3     1  UNL1        0.0233
      2 C         143.6382  139.8207  163.8668 C.3     1  UNL1        0.0956
      3 C         143.6072  139.2409  165.2499 C.3     1  UNL1        0.1135
      4 N         142.9867  140.0159  166.3743 N.am    1  UNL1       -0.2726
      5 C         142.9557  139.4360  167.7574 C.2     1  UNL1        0.2491
      6 O         143.5451  138.0811  168.0160 O.2     1  UNL1       -0.2699
      7 C         142.3973  141.3707  166.1158 C.3     1  UNL1        0.1152
      8 C         142.4283  141.9506  164.7327 C.3     1  UNL1        0.1153
      9 N         143.0488  141.1756  163.6083 N.am    1  UNL1       -0.2716
     10 C         143.0798  141.7554  162.2253 C.2     1  UNL1        0.2883
     11 O         143.7003  140.9804  161.1008 O.2     1  UNL1       -0.2664
     12 C         142.3353  140.2110  168.8818 C.ar    1  UNL1        0.0536
     13 C         143.1028  141.3167  169.5438 C.ar    1  UNL1        0.0045
     14 C         142.4823  142.0917  170.6682 C.ar    1  UNL1        0.0001
     15 C         141.0942  141.7610  171.1307 C.ar    1  UNL1        0.0000
     16 C         140.3267  140.6553  170.4687 C.ar    1  UNL1        0.0001
     17 C         140.9472  139.8803  169.3443 C.ar    1  UNL1        0.0045
     18 C         142.4903  143.1104  161.9666 C.2     1  UNL1        0.2502
     19 O         143.3865  144.3066  161.8418 O.2     1  UNL1       -0.2816
     20 C         141.0047  143.2688  161.8329 C.2     1  UNL1        0.0653
     21 C         140.1961  142.9933  160.5999 C.2     1  UNL1        0.1018
     22 N         138.7586  143.2849  160.9137 N.2     1  UNL1       -0.2476
     23 C         138.6787  143.7406  162.3405 C.2     1  UNL1        0.0666
     24 C         137.5213  144.1633  163.1959 C.3     1  UNL1        0.0927
     25 C         137.7521  144.5761  164.6193 C.2     1  UNL1        0.0788
     26 N         139.1403  144.5662  165.1874 N.2     1  UNL1       -0.2465
     27 C         140.2978  144.1435  164.3321 C.2     1  UNL1        0.0998
     28 C         140.0670  143.7307  162.9086 C.2     1  UNL1        0.0378
@<TRIPOS>BOND
     1     2     1    1
     2     2     3    1
     3     3     4    1
     4     4     5   am
     5     5     6    2
     6     5    12    1
     7    12    13   ar
     8    13    14   ar
     9    14    15   ar
    10    15    16   ar
    11    16    17   ar
    12     4     7    1
    13     7     8    1
    14     8     9    1
    15     9    10   am
    16    10    11    2
    17    10    18    1
    18    18    19    2
    19    18    20    1
    20    20    21    2
    21    21    22    1
    22    22    23    2
    23    23    24    1
    24    24    25    1
    25    25    26    2
    26    26    27    1
    27    27    28    2
    28     9     2    1
    29    28    20    1
    30    17    12   ar
    31    28    23    1
@<TRIPOS>MOLECULE
*****
 28 31 0 0 0
SMALL
GASTEIGER

@<TRIPOS>ATOM
      1 C         138.9428  137.5570  163.2966 C.3     1  UNL1        0.0233
      2 C         139.7995  138.3308  164.2544 C.3     1  UNL1        0.0956
      3 C         139.2712  138.6896  165.6117 C.3     1  UNL1        0.1135
      4 N         140.1279  139.4634  166.5695 N.am    1  UNL1       -0.2726
      5 C         139.5996  139.8222  167.9267 C.2     1  UNL1        0.2491
      6 O         138.2145  139.4073  168.3262 O.2     1  UNL1       -0.2699
      7 C         141.5129  139.8783  166.1701 C.3     1  UNL1        0.1152
      8 C         142.0412  139.5194  164.8128 C.3     1  UNL1        0.1153
      9 N         141.1845  138.7457  163.8550 N.am    1  UNL1       -0.2716
     10 C         141.7128  138.3868  162.4978 C.2     1  UNL1        0.2883
     11 O         140.8561  137.6131  161.5400 O.2     1  UNL1       -0.2664
     12 C         140.4563  140.5959  168.8845 C.ar    1  UNL1        0.0536
     13 C         141.3347  139.8700  169.8599 C.ar    1  UNL1        0.0045
     14 C         142.1914  140.6438  170.8176 C.ar    1  UNL1        0.0001
     15 C         142.1697  142.1435  170.8001 C.ar    1  UNL1        0.0000
     16 C         141.2913  142.8694  169.8247 C.ar    1  UNL1        0.0001
     17 C         140.4346  142.0957  168.8669 C.ar    1  UNL1        0.0045
     18 C         143.0979  138.8018  162.0983 C.2     1  UNL1        0.2502
     19 O         144.0920  137.7691  161.6565 O.2     1  UNL1       -0.2816
     20 C         143.4887  140.2493  162.1406 C.2     1  UNL1        0.0653
     21 C         144.7931  140.7962  162.6403 C.2     1  UNL1        0.1018
     22 N         144.7542  142.2890  162.4992 N.2     1  UNL1       -0.2476
     23 C         143.4259  142.6648  161.9123 C.2     1  UNL1        0.0666
     24 C         142.8276  143.9920  161.5512 C.3     1  UNL1        0.0927
     25 C         141.4470  144.0586  160.9684 C.2     1  UNL1        0.0788
     26 N         140.6649  142.7979  160.7468 N.2     1  UNL1       -0.2465
     27 C         141.2633  141.4708  161.1080 C.2     1  UNL1        0.0998
     28 C         142.6438  141.4042  161.6908 C.2     1  UNL1        0.0378
@<TRIPOS>BOND
     1     2     1    1
     2     2     3    1
     3     3     4    1
     4     4     5   am
     5     5     6    2
     6     5    12    1
     7    12    13   ar
     8    13    14   ar
     9    14    15   ar
    10    15    16   ar
    11    16    17   ar
    12     4     7    1
    13     7     8    1
    14     8     9    1
    15     9    10   am
    16    10    11    2
    17    10    18    1
    18    18    19    2
    19    18    20    1
    20    20    21    2
    21    21    22    1
    22    22    23    2
    23    23    24    1
    24    24    25    1
    25    25    26    2
    26    26    27    1
    27    27    28    2
    28     9     2    1
    29    28    20    1
    30    17    12   ar
    31    28    23    1
