@<TRIPOS>MOLECULE
*****
 35 38 0 0 0
SMALL
GASTEIGER

@<TRIPOS>ATOM
      1 N         138.9211  139.9129  164.6900 N.am    1  UNL1       -0.2679
      2 C         139.8795  139.3184  165.6789 C.2     1  UNL1        0.2495
      3 O         140.5711  138.0242  165.3682 O.2     1  UNL1       -0.2699
      4 C         140.1464  140.0182  166.9786 C.ar    1  UNL1        0.0542
      5 C         139.1890  139.8653  168.1231 C.ar    1  UNL1        0.0061
      6 C         139.4559  140.5651  169.4227 C.ar    1  UNL1        0.0198
      7 C         140.6802  141.4178  169.5778 C.ar    1  UNL1        0.0892
      8 N         141.2031  142.2230  170.7304 N.ar    1  UNL1       -0.2245
      9 C         142.4836  142.8736  170.2980 C.ar    1  UNL1        0.1567
     10 N         143.3446  143.7700  171.1379 N.pl3   1  UNL1       -0.3375
     11 S         142.7521  142.4705  168.8784 S.2     1  UNL1       -0.0520
     12 C         141.6375  141.5707  168.4333 C.ar    1  UNL1        0.0498
     13 C         141.3706  140.8710  167.1337 C.ar    1  UNL1        0.0126
     14 H         143.0829  143.9772  172.0641 H       1  UNL1        0.1442
     15 H         144.1712  144.1511  170.7630 H       1  UNL1        0.1442
     16 C         138.6542  139.2131  163.3903 C.3     1  UNL1        0.1209
     17 C         141.4096  139.8430  159.8886 C.ar    1  UNL1        0.1724
     18 C         140.2834  140.8018  160.1388 C.ar    1  UNL1        0.0398
     19 C         139.3649  140.5918  161.3060 C.ar    1  UNL1        0.0007
     20 C         139.5727  139.4231  162.2231 C.ar    1  UNL1        0.0009
     21 C         140.6988  138.4644  161.9729 C.ar    1  UNL1        0.0374
     22 C         141.6173  138.6743  160.8057 C.ar    1  UNL1        0.1721
     23 C         143.6490  140.7352  158.9198 C.3     1  UNL1        0.2526
     24 O         142.3280  140.0530  158.7214 O.3     1  UNL1       -0.4684
     25 O         142.7434  137.7156  160.5555 O.3     1  UNL1       -0.4684
     26 C         144.0078  137.8184  161.3562 C.3     1  UNL1        0.2526
     27 C         138.2295  141.2072  165.0007 C.3     1  UNL1        0.1208
     28 C         138.6331  142.4634  164.2872 C.ar    1  UNL1       -0.0014
     29 C         137.6634  143.1510  163.3724 C.ar    1  UNL1       -0.0017
     30 C         138.0671  144.4071  162.6589 C.ar    1  UNL1        0.0120
     31 C         139.4405  144.9757  162.8602 C.ar    1  UNL1        0.0682
     32 CL        139.8441  146.2319  162.1466 Cl      1  UNL1       -0.0814
     33 C         140.4102  144.2881  163.7749 C.ar    1  UNL1        0.0679
     34 CL        141.7836  144.8567  163.9762 Cl      1  UNL1       -0.0814
     35 C         140.0065  143.0320  164.4884 C.ar    1  UNL1        0.0096
@<TRIPOS>BOND
     1    23    24    1
     2    24    17    1
     3    17    18   ar
     4    18    19   ar
     5    19    20   ar
     6    20    16    1
     7    16     1    1
     8     1    27    1
     9    27    28    1
    10    28    29   ar
    11    29    30   ar
    12    30    31   ar
    13    31    32    1
    14    31    33   ar
    15    33    34    1
    16    33    35   ar
    17     1     2   am
    18     2     3    2
    19     2     4    1
    20     4     5   ar
    21     5     6   ar
    22     6     7   ar
    23     7     8   ar
    24     8     9   ar
    25     9    10    1
    26     9    11   ar
    27    11    12   ar
    28    12    13   ar
    29    20    21   ar
    30    21    22   ar
    31    22    25    1
    32    25    26    1
    33    22    17   ar
    34    35    28   ar
    35    13     4   ar
    36    12     7   ar
    37    10    14    1
    38    10    15    1
@<TRIPOS>MOLECULE
*****
 35 38 0 0 0
SMALL
GASTEIGER

@<TRIPOS>ATOM
      1 N         141.5080  138.8860  165.0339 N.am    1  UNL1       -0.2679
      2 C         142.3780  139.0532  166.2443 C.2     1  UNL1        0.2495
      3 O         143.5077  138.0984  166.4936 O.2     1  UNL1       -0.2699
      4 C         142.1183  140.1752  167.2055 C.ar    1  UNL1        0.0542
      5 C         143.0983  141.3046  167.3223 C.ar    1  UNL1        0.0061
      6 C         142.8386  142.4266  168.2834 C.ar    1  UNL1        0.0198
      7 C         141.5988  142.4190  169.1277 C.ar    1  UNL1        0.0892
      8 N         141.0783  143.3800  170.1552 N.ar    1  UNL1       -0.2245
      9 C         139.7766  142.8443  170.6734 C.ar    1  UNL1        0.1567
     10 N         138.9108  143.4877  171.7158 N.pl3   1  UNL1       -0.3375
     11 S         139.4926  141.5524  169.9661 S.2     1  UNL1       -0.0520
     12 C         140.6188  141.2895  169.0109 C.ar    1  UNL1        0.0498
     13 C         140.8785  140.1676  168.0498 C.ar    1  UNL1        0.0126
     14 H         139.1837  144.3409  172.1243 H       1  UNL1        0.1442
     15 H         138.0696  143.0568  171.9914 H       1  UNL1        0.1442
     16 C         141.7677  137.7640  164.0727 C.3     1  UNL1        0.1209
     17 C         143.0387  138.6665  159.8513 C.ar    1  UNL1        0.1724
     18 C         144.0525  138.6704  160.9568 C.ar    1  UNL1        0.0398
     19 C         143.6289  138.3695  162.3640 C.ar    1  UNL1        0.0007
     20 C         142.1914  138.0649  162.6655 C.ar    1  UNL1        0.0009
     21 C         141.1776  138.0610  161.5600 C.ar    1  UNL1        0.0374
     22 C         141.6013  138.3618  160.1529 C.ar    1  UNL1        0.1721
     23 C         143.9256  140.3464  158.0789 C.3     1  UNL1        0.2526
     24 O         143.4623  138.9673  158.4441 O.3     1  UNL1       -0.4684
     25 O         140.5875  138.3580  159.0473 O.3     1  UNL1       -0.4684
     26 C         139.8103  139.6031  158.7381 C.3     1  UNL1        0.2526
     27 C         140.3783  139.8408  164.7845 C.3     1  UNL1        0.1208
     28 C         140.6679  141.2722  164.4417 C.ar    1  UNL1       -0.0014
     29 C         141.8557  141.6143  163.5919 C.ar    1  UNL1       -0.0017
     30 C         142.1452  143.0456  163.2491 C.ar    1  UNL1        0.0120
     31 C         141.2470  144.1347  163.7561 C.ar    1  UNL1        0.0682
     32 CL        141.5365  145.5661  163.4132 Cl      1  UNL1       -0.0814
     33 C         140.0592  143.7926  164.6058 C.ar    1  UNL1        0.0679
     34 CL        139.1610  144.8817  165.1128 Cl      1  UNL1       -0.0814
     35 C         139.7697  142.3613  164.9486 C.ar    1  UNL1        0.0096
@<TRIPOS>BOND
     1    23    24    1
     2    24    17    1
     3    17    18   ar
     4    18    19   ar
     5    19    20   ar
     6    20    16    1
     7    16     1    1
     8     1    27    1
     9    27    28    1
    10    28    29   ar
    11    29    30   ar
    12    30    31   ar
    13    31    32    1
    14    31    33   ar
    15    33    34    1
    16    33    35   ar
    17     1     2   am
    18     2     3    2
    19     2     4    1
    20     4     5   ar
    21     5     6   ar
    22     6     7   ar
    23     7     8   ar
    24     8     9   ar
    25     9    10    1
    26     9    11   ar
    27    11    12   ar
    28    12    13   ar
    29    20    21   ar
    30    21    22   ar
    31    22    25    1
    32    25    26    1
    33    22    17   ar
    34    35    28   ar
    35    13     4   ar
    36    12     7   ar
    37    10    14    1
    38    10    15    1
@<TRIPOS>MOLECULE
*****
 35 38 0 0 0
SMALL
GASTEIGER

@<TRIPOS>ATOM
      1 N         139.4657  139.4918  164.7516 N.am    1  UNL1       -0.2679
      2 C         140.5258  139.1488  165.7559 C.2     1  UNL1        0.2495
      3 O         141.4656  138.0093  165.4949 O.2     1  UNL1       -0.2699
      4 C         140.6460  139.9454  167.0212 C.ar    1  UNL1        0.0542
      5 C         139.5366  139.9219  168.0305 C.ar    1  UNL1        0.0061
      6 C         139.6569  140.7185  169.2958 C.ar    1  UNL1        0.0198
      7 C         140.8865  141.5386  169.5518 C.ar    1  UNL1        0.0892
      8 N         141.2848  142.4190  170.6991 N.ar    1  UNL1       -0.2245
      9 C         142.6404  142.9866  170.3988 C.ar    1  UNL1        0.1567
     10 N         143.4198  143.9200  171.2771 N.pl3   1  UNL1       -0.3375
     11 S         143.0798  142.4570  169.0660 S.2     1  UNL1       -0.0520
     12 C         141.9958  141.5621  168.5425 C.ar    1  UNL1        0.0498
     13 C         141.8756  140.7655  167.2772 C.ar    1  UNL1        0.0126
     14 H         143.0450  144.2130  172.1391 H       1  UNL1        0.1442
     15 H         144.3061  144.2397  170.9916 H       1  UNL1        0.1442
     16 C         139.3455  138.6952  163.4862 C.3     1  UNL1        0.1209
     17 C         138.5804  140.7858  159.5755 C.ar    1  UNL1        0.1724
     18 C         137.5076  139.9414  160.1970 C.ar    1  UNL1        0.0398
     19 C         137.7626  139.2445  161.5006 C.ar    1  UNL1        0.0007
     20 C         139.0904  139.3920  162.1827 C.ar    1  UNL1        0.0009
     21 C         140.1632  140.2364  161.5612 C.ar    1  UNL1        0.0374
     22 C         139.9081  140.9333  160.2576 C.ar    1  UNL1        0.1721
     23 C         137.6919  140.7377  157.1346 C.3     1  UNL1        0.2526
     24 O         138.3253  141.4827  158.2720 O.3     1  UNL1       -0.4684
     25 O         140.9808  141.7777  159.6361 O.3     1  UNL1       -0.4684
     26 C         141.0029  143.2583  159.8756 C.3     1  UNL1        0.2526
     27 C         138.5258  140.6313  165.0126 C.3     1  UNL1        0.1208
     28 C         138.7403  141.9511  164.3328 C.ar    1  UNL1       -0.0014
     29 C         137.6544  142.5427  163.4839 C.ar    1  UNL1       -0.0017
     30 C         137.8689  143.8625  162.8041 C.ar    1  UNL1        0.0120
     31 C         139.1693  144.5907  162.9733 C.ar    1  UNL1        0.0682
     32 CL        139.3838  145.9106  162.2935 Cl      1  UNL1       -0.0814
     33 C         140.2552  143.9991  163.8222 C.ar    1  UNL1        0.0679
     34 CL        141.5557  144.7273  163.9913 Cl      1  UNL1       -0.0814
     35 C         140.0407  142.6793  164.5019 C.ar    1  UNL1        0.0096
@<TRIPOS>BOND
     1    23    24    1
     2    24    17    1
     3    17    18   ar
     4    18    19   ar
     5    19    20   ar
     6    20    16    1
     7    16     1    1
     8     1    27    1
     9    27    28    1
    10    28    29   ar
    11    29    30   ar
    12    30    31   ar
    13    31    32    1
    14    31    33   ar
    15    33    34    1
    16    33    35   ar
    17     1     2   am
    18     2     3    2
    19     2     4    1
    20     4     5   ar
    21     5     6   ar
    22     6     7   ar
    23     7     8   ar
    24     8     9   ar
    25     9    10    1
    26     9    11   ar
    27    11    12   ar
    28    12    13   ar
    29    20    21   ar
    30    21    22   ar
    31    22    25    1
    32    25    26    1
    33    22    17   ar
    34    35    28   ar
    35    13     4   ar
    36    12     7   ar
    37    10    14    1
    38    10    15    1
@<TRIPOS>MOLECULE
*****
 35 38 0 0 0
SMALL
GASTEIGER

@<TRIPOS>ATOM
      1 N         139.4627  140.3372  162.6010 N.am    1  UNL1       -0.2679
      2 C         138.5508  140.9044  163.6482 C.2     1  UNL1        0.2495
      3 O         137.4311  141.8202  163.2514 O.2     1  UNL1       -0.2699
      4 C         138.7587  140.5558  165.0923 C.ar    1  UNL1        0.0542
      5 C         138.0714  139.3599  165.6816 C.ar    1  UNL1        0.0061
      6 C         138.2793  139.0114  167.1257 C.ar    1  UNL1        0.0198
      7 C         139.1744  139.8588  167.9804 C.ar    1  UNL1        0.0892
      8 N         139.5677  139.7632  169.4248 N.ar    1  UNL1       -0.2245
      9 C         140.4979  140.9000  169.7282 C.ar    1  UNL1        0.1567
     10 N         141.1348  141.1881  171.0554 N.pl3   1  UNL1       -0.3375
     11 S         140.6796  141.6983  168.4713 S.2     1  UNL1       -0.0520
     12 C         139.8617  141.0548  167.3911 C.ar    1  UNL1        0.0498
     13 C         139.6538  141.4033  165.9471 C.ar    1  UNL1        0.0126
     14 H         140.9531  140.6029  171.8260 H       1  UNL1        0.1442
     15 H         141.7344  141.9625  171.1560 H       1  UNL1        0.1442
     16 C         139.2548  140.6857  161.1569 C.3     1  UNL1        0.1209
     17 C         141.4233  144.1926  159.3542 C.ar    1  UNL1        0.1724
     18 C         141.9355  142.8001  159.1335 C.ar    1  UNL1        0.0398
     19 C         141.2126  141.6311  159.7344 C.ar    1  UNL1        0.0007
     20 C         139.9777  141.8547  160.5560 C.ar    1  UNL1        0.0009
     21 C         139.4655  143.2472  160.7766 C.ar    1  UNL1        0.0374
     22 C         140.1883  144.4161  160.1757 C.ar    1  UNL1        0.1721
     23 C         141.8598  145.7745  157.3400 C.3     1  UNL1        0.2526
     24 O         142.1461  145.3616  158.7533 O.3     1  UNL1       -0.4684
     25 O         139.6762  145.8086  160.3963 O.3     1  UNL1       -0.4684
     26 C         139.6983  146.4067  161.7718 C.3     1  UNL1        0.2526
     27 C         140.5824  139.4214  162.9978 C.3     1  UNL1        0.1208
     28 C         141.9651  139.9688  163.1945 C.ar    1  UNL1       -0.0014
     29 C         143.1369  139.0357  163.2740 C.ar    1  UNL1       -0.0017
     30 C         144.5195  139.5831  163.4707 C.ar    1  UNL1        0.0120
     31 C         144.7303  141.0636  163.5879 C.ar    1  UNL1        0.0682
     32 CL        146.1130  141.6110  163.7847 Cl      1  UNL1       -0.0814
     33 C         143.5586  141.9966  163.5085 C.ar    1  UNL1        0.0679
     34 CL        143.7694  143.4771  163.6258 Cl      1  UNL1       -0.0814
     35 C         142.1760  141.4492  163.3118 C.ar    1  UNL1        0.0096
@<TRIPOS>BOND
     1    23    24    1
     2    24    17    1
     3    17    18   ar
     4    18    19   ar
     5    19    20   ar
     6    20    16    1
     7    16     1    1
     8     1    27    1
     9    27    28    1
    10    28    29   ar
    11    29    30   ar
    12    30    31   ar
    13    31    32    1
    14    31    33   ar
    15    33    34    1
    16    33    35   ar
    17     1     2   am
    18     2     3    2
    19     2     4    1
    20     4     5   ar
    21     5     6   ar
    22     6     7   ar
    23     7     8   ar
    24     8     9   ar
    25     9    10    1
    26     9    11   ar
    27    11    12   ar
    28    12    13   ar
    29    20    21   ar
    30    21    22   ar
    31    22    25    1
    32    25    26    1
    33    22    17   ar
    34    35    28   ar
    35    13     4   ar
    36    12     7   ar
    37    10    14    1
    38    10    15    1
@<TRIPOS>MOLECULE
*****
 35 38 0 0 0
SMALL
GASTEIGER

@<TRIPOS>ATOM
      1 N         139.0688  140.9944  164.6774 N.am    1  UNL1       -0.2679
      2 C         139.3130  140.1404  165.8861 C.2     1  UNL1        0.2495
      3 O         138.4626  138.9297  166.1332 O.2     1  UNL1       -0.2699
      4 C         140.4075  140.4971  166.8478 C.ar    1  UNL1        0.0542
      5 C         141.6370  139.6424  166.9353 C.ar    1  UNL1        0.0061
      6 C         142.7315  139.9991  167.8970 C.ar    1  UNL1        0.0198
      7 C         142.5965  141.2106  168.7711 C.ar    1  UNL1        0.0892
      8 N         143.5033  141.8075  169.8062 N.ar    1  UNL1       -0.2245
      9 C         142.8342  143.0312  170.3584 C.ar    1  UNL1        0.1567
     10 N         143.3882  143.9367  171.4183 N.pl3   1  UNL1       -0.3375
     11 S         141.5139  143.1905  169.6645 S.2     1  UNL1       -0.0520
     12 C         141.3670  142.0653  168.6836 C.ar    1  UNL1        0.0498
     13 C         140.2725  141.7086  167.7219 C.ar    1  UNL1        0.0126
     14 H         144.2689  143.7479  171.8159 H       1  UNL1        0.1442
     15 H         142.8711  144.7196  171.7163 H       1  UNL1        0.1442
     16 C         137.9743  140.6376  163.7157 C.3     1  UNL1        0.1209
     17 C         138.9960  138.9996  159.6509 C.ar    1  UNL1        0.1724
     18 C         139.1173  138.1255  160.8639 C.ar    1  UNL1        0.0398
     19 C         138.7767  138.6715  162.2188 C.ar    1  UNL1        0.0007
     20 C         138.3149  140.0916  162.3607 C.ar    1  UNL1        0.0009
     21 C         138.1936  140.9657  161.1478 C.ar    1  UNL1        0.0374
     22 C         138.5342  140.4197  159.7928 C.ar    1  UNL1        0.1721
     23 C         140.7218  138.6224  157.7458 C.3     1  UNL1        0.2526
     24 O         139.3366  138.4536  158.2959 O.3     1  UNL1       -0.4684
     25 O         138.4130  141.2937  158.5799 O.3     1  UNL1       -0.4684
     26 C         137.3344  141.0312  157.5710 C.3     1  UNL1        0.2526
     27 C         139.9192  142.2051  164.4302 C.3     1  UNL1        0.1208
     28 C         141.3999  142.0559  164.2423 C.ar    1  UNL1       -0.0014
     29 C         141.9370  140.9890  163.3350 C.ar    1  UNL1       -0.0017
     30 C         143.4177  140.8398  163.1470 C.ar    1  UNL1        0.0120
     31 C         144.3612  141.7575  163.8664 C.ar    1  UNL1        0.0682
     32 CL        145.8420  141.6083  163.6784 Cl      1  UNL1       -0.0814
     33 C         143.8241  142.8244  164.7737 C.ar    1  UNL1        0.0679
     34 CL        144.7677  143.7422  165.4930 Cl      1  UNL1       -0.0814
     35 C         142.3435  142.9736  164.9616 C.ar    1  UNL1        0.0096
@<TRIPOS>BOND
     1    23    24    1
     2    24    17    1
     3    17    18   ar
     4    18    19   ar
     5    19    20   ar
     6    20    16    1
     7    16     1    1
     8     1    27    1
     9    27    28    1
    10    28    29   ar
    11    29    30   ar
    12    30    31   ar
    13    31    32    1
    14    31    33   ar
    15    33    34    1
    16    33    35   ar
    17     1     2   am
    18     2     3    2
    19     2     4    1
    20     4     5   ar
    21     5     6   ar
    22     6     7   ar
    23     7     8   ar
    24     8     9   ar
    25     9    10    1
    26     9    11   ar
    27    11    12   ar
    28    12    13   ar
    29    20    21   ar
    30    21    22   ar
    31    22    25    1
    32    25    26    1
    33    22    17   ar
    34    35    28   ar
    35    13     4   ar
    36    12     7   ar
    37    10    14    1
    38    10    15    1
@<TRIPOS>MOLECULE
*****
 35 38 0 0 0
SMALL
GASTEIGER

@<TRIPOS>ATOM
      1 N         139.6784  138.7109  165.7630 N.am    1  UNL1       -0.2679
      2 C         138.8002  139.1824  166.8839 C.2     1  UNL1        0.2495
      3 O         137.3244  138.9170  166.8430 O.2     1  UNL1       -0.2699
      4 C         139.3978  139.9192  168.0459 C.ar    1  UNL1        0.0542
      5 C         138.8212  139.7470  169.4198 C.ar    1  UNL1        0.0061
      6 C         139.4188  140.4838  170.5817 C.ar    1  UNL1        0.0198
      7 C         140.5930  141.3928  170.3696 C.ar    1  UNL1        0.0892
      8 N         141.3877  142.2433  171.3158 N.ar    1  UNL1       -0.2245
      9 C         142.4554  142.9411  170.5265 C.ar    1  UNL1        0.1567
     10 N         143.4784  143.8913  171.0749 N.pl3   1  UNL1       -0.3375
     11 S         142.3206  142.5219  169.0926 S.2     1  UNL1       -0.0520
     12 C         141.1696  141.5650  168.9956 C.ar    1  UNL1        0.0498
     13 C         140.5720  140.8282  167.8338 C.ar    1  UNL1        0.0126
     14 H         143.4864  144.1053  172.0358 H       1  UNL1        0.1442
     15 H         144.1419  144.3010  170.4738 H       1  UNL1        0.1442
     16 C         139.0808  137.9741  164.6010 C.3     1  UNL1        0.1209
     17 C         138.2980  140.1321  160.7306 C.ar    1  UNL1        0.1724
     18 C         138.9198  138.7671  160.7158 C.ar    1  UNL1        0.0398
     19 C         139.1807  138.0477  162.0059 C.ar    1  UNL1        0.0007
     20 C         138.8199  138.6934  163.3109 C.ar    1  UNL1        0.0009
     21 C         138.1982  140.0584  163.3257 C.ar    1  UNL1        0.0374
     22 C         137.9372  140.7778  162.0355 C.ar    1  UNL1        0.1721
     23 C         138.5998  140.3172  158.1568 C.3     1  UNL1        0.2526
     24 O         138.0371  140.8514  159.4404 O.3     1  UNL1       -0.4684
     25 O         137.3155  142.1427  162.0503 O.3     1  UNL1       -0.4684
     26 C         137.9543  143.2494  162.8361 C.3     1  UNL1        0.2526
     27 C         141.1541  138.9763  165.8039 C.3     1  UNL1        0.1208
     28 C         141.8691  139.4309  164.5660 C.ar    1  UNL1       -0.0014
     29 C         141.8258  140.8749  164.1626 C.ar    1  UNL1       -0.0017
     30 C         142.5407  141.3295  162.9248 C.ar    1  UNL1        0.0120
     31 C         143.2988  140.3400  162.0904 C.ar    1  UNL1        0.0682
     32 CL        144.0137  140.7946  160.8525 Cl      1  UNL1       -0.0814
     33 C         143.3421  138.8960  162.4938 C.ar    1  UNL1        0.0679
     34 CL        144.1002  137.9065  161.6595 Cl      1  UNL1       -0.0814
     35 C         142.6272  138.4414  163.7317 C.ar    1  UNL1        0.0096
@<TRIPOS>BOND
     1    23    24    1
     2    24    17    1
     3    17    18   ar
     4    18    19   ar
     5    19    20   ar
     6    20    16    1
     7    16     1    1
     8     1    27    1
     9    27    28    1
    10    28    29   ar
    11    29    30   ar
    12    30    31   ar
    13    31    32    1
    14    31    33   ar
    15    33    34    1
    16    33    35   ar
    17     1     2   am
    18     2     3    2
    19     2     4    1
    20     4     5   ar
    21     5     6   ar
    22     6     7   ar
    23     7     8   ar
    24     8     9   ar
    25     9    10    1
    26     9    11   ar
    27    11    12   ar
    28    12    13   ar
    29    20    21   ar
    30    21    22   ar
    31    22    25    1
    32    25    26    1
    33    22    17   ar
    34    35    28   ar
    35    13     4   ar
    36    12     7   ar
    37    10    14    1
    38    10    15    1
@<TRIPOS>MOLECULE
*****
 35 38 0 0 0
SMALL
GASTEIGER

@<TRIPOS>ATOM
      1 N         139.5085  138.8703  164.1474 N.am    1  UNL1       -0.2679
      2 C         140.7102  138.9066  165.0443 C.2     1  UNL1        0.2495
      3 O         141.7866  137.8722  164.8982 O.2     1  UNL1       -0.2699
      4 C         140.8354  139.9773  166.0875 C.ar    1  UNL1        0.0542
      5 C         141.7401  141.1506  165.8531 C.ar    1  UNL1        0.0061
      6 C         141.8653  142.2211  166.8962 C.ar    1  UNL1        0.0198
      7 C         141.0859  142.1184  168.1737 C.ar    1  UNL1        0.0892
      8 N         141.0063  143.0125  169.3755 N.ar    1  UNL1       -0.2245
      9 C         140.0525  142.3917  170.3527 C.ar    1  UNL1        0.1567
     10 N         139.6748  142.9505  171.6925 N.pl3   1  UNL1       -0.3375
     11 S         139.5426  141.1140  169.7548 S.2     1  UNL1       -0.0520
     12 C         140.1813  140.9451  168.4081 C.ar    1  UNL1        0.0498
     13 C         140.0561  139.8745  167.3650 C.ar    1  UNL1        0.0126
     14 H         140.0650  143.8008  171.9990 H       1  UNL1        0.1442
     15 H         139.0367  142.4670  172.2654 H       1  UNL1        0.1442
     16 C         139.3832  137.7997  163.1042 C.3     1  UNL1        0.1209
     17 C         140.9749  138.5042  158.9545 C.ar    1  UNL1        0.1724
     18 C         139.4947  138.4905  159.1978 C.ar    1  UNL1        0.0398
     19 C         138.9642  138.2557  160.5810 C.ar    1  UNL1        0.0007
     20 C         139.9138  138.0345  161.7210 C.ar    1  UNL1        0.0009
     21 C         141.3938  138.0482  161.4777 C.ar    1  UNL1        0.0374
     22 C         141.9244  138.2831  160.0945 C.ar    1  UNL1        0.1721
     23 C         141.9425  140.1134  157.1590 C.3     1  UNL1        0.2526
     24 O         141.5054  138.7391  157.5713 O.3     1  UNL1       -0.4684
     25 O         143.4044  138.2968  159.8512 O.3     1  UNL1       -0.4684
     26 C         144.3189  138.9738  160.8286 C.3     1  UNL1        0.2526
     27 C         138.4320  139.9047  164.2935 C.3     1  UNL1        0.1208
     28 C         138.6751  141.3107  163.8307 C.ar    1  UNL1       -0.0014
     29 C         139.0422  141.5767  162.4008 C.ar    1  UNL1       -0.0017
     30 C         139.2852  142.9826  161.9381 C.ar    1  UNL1        0.0120
     31 C         139.1612  144.1226  162.9051 C.ar    1  UNL1        0.0682
     32 CL        139.4043  145.5286  162.4423 Cl      1  UNL1       -0.0814
     33 C         138.7941  143.8565  164.3350 C.ar    1  UNL1        0.0679
     34 CL        138.6701  144.9965  165.3020 Cl      1  UNL1       -0.0814
     35 C         138.5511  142.4506  164.7977 C.ar    1  UNL1        0.0096
@<TRIPOS>BOND
     1    23    24    1
     2    24    17    1
     3    17    18   ar
     4    18    19   ar
     5    19    20   ar
     6    20    16    1
     7    16     1    1
     8     1    27    1
     9    27    28    1
    10    28    29   ar
    11    29    30   ar
    12    30    31   ar
    13    31    32    1
    14    31    33   ar
    15    33    34    1
    16    33    35   ar
    17     1     2   am
    18     2     3    2
    19     2     4    1
    20     4     5   ar
    21     5     6   ar
    22     6     7   ar
    23     7     8   ar
    24     8     9   ar
    25     9    10    1
    26     9    11   ar
    27    11    12   ar
    28    12    13   ar
    29    20    21   ar
    30    21    22   ar
    31    22    25    1
    32    25    26    1
    33    22    17   ar
    34    35    28   ar
    35    13     4   ar
    36    12     7   ar
    37    10    14    1
    38    10    15    1
@<TRIPOS>MOLECULE
*****
 35 38 0 0 0
SMALL
GASTEIGER

@<TRIPOS>ATOM
      1 N         139.7364  138.8312  164.0340 N.am    1  UNL1       -0.2679
      2 C         140.9244  138.9328  164.9441 C.2     1  UNL1        0.2495
      3 O         142.0566  137.9580  164.8110 O.2     1  UNL1       -0.2699
      4 C         140.9801  140.0093  165.9873 C.ar    1  UNL1        0.0542
      5 C         141.8396  141.2194  165.7710 C.ar    1  UNL1        0.0061
      6 C         141.8954  142.2958  166.8142 C.ar    1  UNL1        0.0198
      7 C         141.0917  142.1620  168.0736 C.ar    1  UNL1        0.0892
      8 N         140.9466  143.0537  169.2712 N.ar    1  UNL1       -0.2245
      9 C         139.9974  142.3945  170.2275 C.ar    1  UNL1        0.1567
     10 N         139.5656  142.9387  171.5570 N.pl3   1  UNL1       -0.3375
     11 S         139.5559  141.0956  169.6210 S.2     1  UNL1       -0.0520
     12 C         140.2322  140.9519  168.2899 C.ar    1  UNL1        0.0498
     13 C         140.1764  139.8755  167.2467 C.ar    1  UNL1        0.0126
     14 H         139.9124  143.8052  171.8703 H       1  UNL1        0.1442
     15 H         138.9353  142.4295  172.1161 H       1  UNL1        0.1442
     16 C         139.6806  137.7548  162.9908 C.3     1  UNL1        0.1209
     17 C         141.3315  138.5221  158.8755 C.ar    1  UNL1        0.1724
     18 C         142.2589  138.1810  160.0040 C.ar    1  UNL1        0.0398
     19 C         141.7086  137.9252  161.3758 C.ar    1  UNL1        0.0007
     20 C         140.2309  138.0106  161.6190 C.ar    1  UNL1        0.0009
     21 C         139.3035  138.3517  160.4905 C.ar    1  UNL1        0.0374
     22 C         139.8538  138.6075  159.1187 C.ar    1  UNL1        0.1721
     23 C         143.2284  139.4188  157.3433 C.3     1  UNL1        0.2526
     24 O         141.8818  138.7779  157.5037 O.3     1  UNL1       -0.4684
     25 O         138.9265  138.9486  157.9902 O.3     1  UNL1       -0.4684
     26 C         138.7693  140.3751  157.5537 C.3     1  UNL1        0.2526
     27 C         138.6041  139.8061  164.1670 C.3     1  UNL1        0.1208
     28 C         138.7930  141.2358  163.7544 C.ar    1  UNL1       -0.0014
     29 C         139.2552  141.5606  162.3649 C.ar    1  UNL1       -0.0017
     30 C         139.4441  142.9903  161.9523 C.ar    1  UNL1        0.0120
     31 C         139.1708  144.0952  162.9293 C.ar    1  UNL1        0.0682
     32 CL        139.3597  145.5250  162.5167 Cl      1  UNL1       -0.0814
     33 C         138.7086  143.7704  164.3189 C.ar    1  UNL1        0.0679
     34 CL        138.4353  144.8753  165.2959 Cl      1  UNL1       -0.0814
     35 C         138.5197  142.3408  164.7314 C.ar    1  UNL1        0.0096
@<TRIPOS>BOND
     1    23    24    1
     2    24    17    1
     3    17    18   ar
     4    18    19   ar
     5    19    20   ar
     6    20    16    1
     7    16     1    1
     8     1    27    1
     9    27    28    1
    10    28    29   ar
    11    29    30   ar
    12    30    31   ar
    13    31    32    1
    14    31    33   ar
    15    33    34    1
    16    33    35   ar
    17     1     2   am
    18     2     3    2
    19     2     4    1
    20     4     5   ar
    21     5     6   ar
    22     6     7   ar
    23     7     8   ar
    24     8     9   ar
    25     9    10    1
    26     9    11   ar
    27    11    12   ar
    28    12    13   ar
    29    20    21   ar
    30    21    22   ar
    31    22    25    1
    32    25    26    1
    33    22    17   ar
    34    35    28   ar
    35    13     4   ar
    36    12     7   ar
    37    10    14    1
    38    10    15    1
@<TRIPOS>MOLECULE
*****
 35 38 0 0 0
SMALL
GASTEIGER

@<TRIPOS>ATOM
      1 N         139.5178  138.9302  162.6784 N.am    1  UNL1       -0.2679
      2 C         140.7102  138.2884  162.0335 C.2     1  UNL1        0.2495
      3 O         141.2641  137.0088  162.5865 O.2     1  UNL1       -0.2699
      4 C         141.3489  138.9262  160.8354 C.ar    1  UNL1        0.0542
      5 C         140.9525  138.4939  159.4548 C.ar    1  UNL1        0.0061
      6 C         141.5912  139.1316  158.2569 C.ar    1  UNL1        0.0198
      7 C         142.6263  140.2018  158.4394 C.ar    1  UNL1        0.0892
      8 N         143.4229  141.0060  157.4551 N.ar    1  UNL1       -0.2245
      9 C         144.3117  141.9354  158.2273 C.ar    1  UNL1        0.1567
     10 N         145.2781  142.9215  157.6410 N.pl3   1  UNL1       -0.3375
     11 S         144.0643  141.7055  159.6888 S.2     1  UNL1       -0.0520
     12 C         143.0228  140.6341  159.8199 C.ar    1  UNL1        0.0498
     13 C         142.3841  139.9963  161.0179 C.ar    1  UNL1        0.0126
     14 H         145.3699  142.9993  156.6639 H       1  UNL1        0.1442
     15 H         145.8205  143.4908  158.2333 H       1  UNL1        0.1442
     16 C         138.8791  138.2924  163.8765 C.3     1  UNL1        0.1209
     17 C         139.7613  139.8634  168.0001 C.ar    1  UNL1        0.1724
     18 C         138.3933  139.3422  167.6729 C.ar    1  UNL1        0.0398
     19 C         138.0992  138.8186  166.2983 C.ar    1  UNL1        0.0007
     20 C         139.1731  138.8161  165.2510 C.ar    1  UNL1        0.0009
     21 C         140.5411  139.3372  165.5783 C.ar    1  UNL1        0.0374
     22 C         140.8351  139.8608  166.9528 C.ar    1  UNL1        0.1721
     23 C         139.9702  141.8589  169.6506 C.3     1  UNL1        0.2526
     24 O         140.0554  140.3870  169.3746 O.3     1  UNL1       -0.4684
     25 O         142.2031  140.3819  167.2801 O.3     1  UNL1       -0.4684
     26 C         142.5789  141.7864  166.9106 C.3     1  UNL1        0.2526
     27 C         138.9639  140.2098  162.1254 C.3     1  UNL1        0.1208
     28 C         138.8881  141.4312  162.9930 C.ar    1  UNL1       -0.0014
     29 C         137.5749  141.8512  163.5837 C.ar    1  UNL1       -0.0017
     30 C         137.4991  143.0725  164.4512 C.ar    1  UNL1        0.0120
     31 C         138.7366  143.8737  164.7281 C.ar    1  UNL1        0.0682
     32 CL        138.6608  145.0951  165.5957 Cl      1  UNL1       -0.0814
     33 C         140.0499  143.4537  164.1374 C.ar    1  UNL1        0.0679
     34 CL        141.2873  144.2549  164.4143 Cl      1  UNL1       -0.0814
     35 C         140.1256  142.2324  163.2699 C.ar    1  UNL1        0.0096
@<TRIPOS>BOND
     1    23    24    1
     2    24    17    1
     3    17    18   ar
     4    18    19   ar
     5    19    20   ar
     6    20    16    1
     7    16     1    1
     8     1    27    1
     9    27    28    1
    10    28    29   ar
    11    29    30   ar
    12    30    31   ar
    13    31    32    1
    14    31    33   ar
    15    33    34    1
    16    33    35   ar
    17     1     2   am
    18     2     3    2
    19     2     4    1
    20     4     5   ar
    21     5     6   ar
    22     6     7   ar
    23     7     8   ar
    24     8     9   ar
    25     9    10    1
    26     9    11   ar
    27    11    12   ar
    28    12    13   ar
    29    20    21   ar
    30    21    22   ar
    31    22    25    1
    32    25    26    1
    33    22    17   ar
    34    35    28   ar
    35    13     4   ar
    36    12     7   ar
    37    10    14    1
    38    10    15    1
