@<TRIPOS>MOLECULE
*****
 41 45 0 0 0
SMALL
GASTEIGER

@<TRIPOS>ATOM
      1 C         139.5994  140.7630  164.5152 C.3     1  UNL1        0.0777
      2 C         138.8847  139.9192  166.8663 C.ar    1  UNL1        0.1351
      3 C         139.0505  139.9325  168.3570 C.ar    1  UNL1        0.0366
      4 C         140.0968  140.8030  168.9876 C.ar    1  UNL1        0.0030
      5 C         140.2625  140.8163  170.4783 C.ar    1  UNL1        0.0006
      6 C         141.3088  141.6868  171.1088 C.ar    1  UNL1        0.0067
      7 C         142.1893  142.5439  170.2486 C.ar    1  UNL1        0.0346
      8 BR        143.2356  143.4144  170.8791 Br      1  UNL1       -0.0490
      9 C         142.0236  142.5306  168.7578 C.ar    1  UNL1        0.0067
     10 C         140.9773  141.6601  168.1273 C.ar    1  UNL1        0.0004
     11 C         140.8115  141.6468  166.6365 C.ar    1  UNL1       -0.0009
     12 C         139.7652  140.7763  166.0060 C.ar    1  UNL1        0.0182
     13 C         137.7220  137.6074  166.6345 C.3     1  UNL1        0.2525
     14 O         137.8384  139.0487  166.2357 O.3     1  UNL1       -0.4717
     15 C         139.5089  142.0553  163.7591 C.ar    1  UNL1        0.0067
     16 C         138.2195  142.4518  163.1034 C.ar    1  UNL1        0.0984
     17 N         138.1290  143.7442  162.3472 N.ar    1  UNL1       -0.2079
     18 C         139.3279  144.6399  162.2469 C.ar    1  UNL1        0.2601
     19 C         140.6174  144.2434  162.9026 C.ar    1  UNL1        0.1913
     20 C         140.7079  142.9511  163.6588 C.ar    1  UNL1        0.0394
     21 O         139.2373  145.9323  161.4907 O.3     1  UNL1       -0.4541
     22 C         139.9637  146.0915  160.1881 C.3     1  UNL1        0.2543
     23 O         141.8163  145.1392  162.8023 O.3     1  UNL1       -0.4667
     24 C         142.8759  145.0959  163.8632 C.3     1  UNL1        0.2527
     25 C         139.5242  139.4574  163.7807 C.3     1  UNL1        0.1186
     26 O         138.0463  139.6425  163.6031 O.3     1  UNL1       -0.3819
     27 H         137.6025  138.7825  163.6692 H       1  UNL1        0.2107
     28 C         141.0020  139.2723  163.9582 C.ar    1  UNL1        0.0369
     29 C         141.5295  138.5747  165.1769 C.ar    1  UNL1        0.0010
     30 C         143.0074  138.3897  165.3544 C.ar    1  UNL1       -0.0000
     31 C         143.9579  138.9021  164.3133 C.ar    1  UNL1        0.0031
     32 C         143.4305  139.5997  163.0946 C.ar    1  UNL1        0.0375
     33 C         144.1194  140.2069  161.9086 C.ar    1  UNL1        0.0437
     34 C         143.0673  140.7673  160.9981 C.ar    1  UNL1        0.1796
     35 O         141.7281  140.5064  161.6213 O.2     1  UNL1       -0.4507
     36 C         141.9525  139.7848  162.9170 C.ar    1  UNL1        0.1436
     37 C         139.4489  138.1518  163.0461 C.3     1  UNL1        0.0492
     38 C         138.4890  137.9873  161.9052 C.3     1  UNL1        0.0750
     39 N         138.6708  138.7891  160.6505 N.3     1  UNL1       -0.2702
     40 C         139.8192  138.4940  159.7318 C.3     1  UNL1        0.0897
     41 C         137.7043  139.8859  160.3146 C.3     1  UNL1        0.0897
@<TRIPOS>BOND
     1    13    14    1
     2    14     2    1
     3     2     3   ar
     4     3     4   ar
     5     4     5   ar
     6     5     6   ar
     7     6     7   ar
     8     7     8    1
     9     7     9   ar
    10     9    10   ar
    11    10    11   ar
    12    11    12   ar
    13     1    12    1
    14     1    15    1
    15    15    16   ar
    16    16    17   ar
    17    17    18   ar
    18    18    21    1
    19    21    22    1
    20    18    19   ar
    21    19    23    1
    22    23    24    1
    23    19    20   ar
    24     1    25    1
    25    25    26    1
    26    25    37    1
    27    37    38    1
    28    38    39    1
    29    39    40    1
    30    39    41    1
    31    25    28    1
    32    28    29   ar
    33    29    30   ar
    34    30    31   ar
    35    31    32   ar
    36    32    33   ar
    37    33    34   ar
    38    34    35   ar
    39    35    36   ar
    40    12     2   ar
    41    20    15   ar
    42    36    28   ar
    43    10     4   ar
    44    36    32   ar
    45    26    27    1
@<TRIPOS>MOLECULE
*****
 41 45 0 0 0
SMALL
GASTEIGER

@<TRIPOS>ATOM
      1 C         142.0166  142.3802  162.5929 C.3     1  UNL1        0.0777
      2 C         143.7270  142.7125  164.5202 C.ar    1  UNL1        0.1351
      3 C         144.0491  142.7150  165.9852 C.ar    1  UNL1        0.0366
      4 C         142.9826  142.3878  166.9881 C.ar    1  UNL1        0.0030
      5 C         143.3047  142.3904  168.4531 C.ar    1  UNL1        0.0006
      6 C         142.2383  142.0632  169.4559 C.ar    1  UNL1        0.0067
      7 C         140.8498  141.7335  168.9937 C.ar    1  UNL1        0.0346
      8 BR        139.7834  141.4063  169.9967 Br      1  UNL1       -0.0490
      9 C         140.5278  141.7310  167.5287 C.ar    1  UNL1        0.0067
     10 C         141.5942  142.0581  166.5259 C.ar    1  UNL1        0.0004
     11 C         141.2722  142.0556  165.0608 C.ar    1  UNL1       -0.0009
     12 C         142.3386  142.3828  164.0580 C.ar    1  UNL1        0.0182
     13 C         145.6665  141.9503  162.9685 C.3     1  UNL1        0.2525
     14 O         144.7935  143.0396  163.5172 O.3     1  UNL1       -0.4717
     15 C         142.2499  141.1441  161.7759 C.ar    1  UNL1        0.0067
     16 C         142.9395  141.2422  160.4474 C.ar    1  UNL1        0.0984
     17 N         143.1728  140.0060  159.6304 N.ar    1  UNL1       -0.2079
     18 C         142.7165  138.6718  160.1419 C.ar    1  UNL1        0.2601
     19 C         142.0269  138.5737  161.4704 C.ar    1  UNL1        0.1913
     20 C         141.7936  139.8098  162.2874 C.ar    1  UNL1        0.0394
     21 O         142.9498  137.4357  159.3249 O.3     1  UNL1       -0.4541
     22 C         142.5927  137.4210  157.8681 C.3     1  UNL1        0.2543
     23 O         141.5706  137.2394  161.9818 O.3     1  UNL1       -0.4667
     24 C         140.9361  137.1326  163.3369 C.3     1  UNL1        0.2527
     25 C         141.4614  143.6138  161.9449 C.3     1  UNL1        0.1186
     26 O         142.8522  144.0617  161.6059 O.3     1  UNL1       -0.3819
     27 H         142.9093  145.0268  161.6848 H       1  UNL1        0.2107
     28 C         140.0706  143.1659  162.2840 C.ar    1  UNL1        0.0369
     29 C         139.3954  142.1185  161.4489 C.ar    1  UNL1        0.0010
     30 C         138.0046  141.6706  161.7880 C.ar    1  UNL1       -0.0000
     31 C         137.2889  142.2700  162.9620 C.ar    1  UNL1        0.0031
     32 C         137.9640  143.3173  163.7971 C.ar    1  UNL1        0.0375
     33 C         137.5119  144.0831  165.0050 C.ar    1  UNL1        0.0437
     34 C         138.6233  145.0044  165.4125 C.ar    1  UNL1        0.1796
     35 O         139.7623  144.8079  164.4565 O.2     1  UNL1       -0.4507
     36 C         139.3548  143.7653  163.4580 C.ar    1  UNL1        0.1436
     37 C         140.9061  144.8474  161.2969 C.3     1  UNL1        0.0492
     38 C         141.3858  145.2610  159.9372 C.3     1  UNL1        0.0750
     39 N         141.3382  144.2876  158.7969 N.3     1  UNL1       -0.2702
     40 C         140.0239  143.7184  158.3511 C.3     1  UNL1        0.0897
     41 C         142.6048  143.8833  158.1026 C.3     1  UNL1        0.0897
@<TRIPOS>BOND
     1    13    14    1
     2    14     2    1
     3     2     3   ar
     4     3     4   ar
     5     4     5   ar
     6     5     6   ar
     7     6     7   ar
     8     7     8    1
     9     7     9   ar
    10     9    10   ar
    11    10    11   ar
    12    11    12   ar
    13     1    12    1
    14     1    15    1
    15    15    16   ar
    16    16    17   ar
    17    17    18   ar
    18    18    21    1
    19    21    22    1
    20    18    19   ar
    21    19    23    1
    22    23    24    1
    23    19    20   ar
    24     1    25    1
    25    25    26    1
    26    25    37    1
    27    37    38    1
    28    38    39    1
    29    39    40    1
    30    39    41    1
    31    25    28    1
    32    28    29   ar
    33    29    30   ar
    34    30    31   ar
    35    31    32   ar
    36    32    33   ar
    37    33    34   ar
    38    34    35   ar
    39    35    36   ar
    40    12     2   ar
    41    20    15   ar
    42    36    28   ar
    43    10     4   ar
    44    36    32   ar
    45    26    27    1
@<TRIPOS>MOLECULE
*****
 41 45 0 0 0
SMALL
GASTEIGER

@<TRIPOS>ATOM
      1 C         142.1825  140.9880  163.2515 C.3     1  UNL1        0.0777
      2 C         143.3140  142.0792  165.3200 C.ar    1  UNL1        0.1351
      3 C         143.3160  142.3873  166.7880 C.ar    1  UNL1        0.0366
      4 C         142.1883  141.9122  167.6556 C.ar    1  UNL1        0.0030
      5 C         142.1903  142.2202  169.1236 C.ar    1  UNL1        0.0006
      6 C         141.0626  141.7451  169.9911 C.ar    1  UNL1        0.0067
      7 C         139.9330  140.9619  169.3906 C.ar    1  UNL1        0.0346
      8 BR        138.8053  140.4868  170.2582 Br      1  UNL1       -0.0490
      9 C         139.9310  140.6538  167.9227 C.ar    1  UNL1        0.0067
     10 C         141.0587  141.1290  167.0551 C.ar    1  UNL1        0.0004
     11 C         141.0568  140.8209  165.5871 C.ar    1  UNL1       -0.0009
     12 C         142.1844  141.2960  164.7195 C.ar    1  UNL1        0.0182
     13 C         144.3643  143.8986  163.7912 C.3     1  UNL1        0.2525
     14 O         144.4417  142.5544  164.4524 O.3     1  UNL1       -0.4717
     15 C         141.5361  141.9374  162.2868 C.ar    1  UNL1        0.0067
     16 C         142.2830  142.3928  161.0683 C.ar    1  UNL1        0.0984
     17 N         141.6366  143.3423  160.1036 N.ar    1  UNL1       -0.2079
     18 C         140.2433  143.8364  160.3573 C.ar    1  UNL1        0.2601
     19 C         139.4963  143.3811  161.5759 C.ar    1  UNL1        0.1913
     20 C         140.1427  142.4316  162.5406 C.ar    1  UNL1        0.0394
     21 O         139.5969  144.7859  159.3926 O.3     1  UNL1       -0.4541
     22 C         140.4404  145.5614  158.4246 C.3     1  UNL1        0.2543
     23 O         138.1030  143.8753  161.8296 O.3     1  UNL1       -0.4667
     24 C         137.6697  144.2136  163.2254 C.3     1  UNL1        0.2527
     25 C         142.8269  139.7305  162.7482 C.3     1  UNL1        0.1186
     26 O         144.0709  140.5004  162.4174 O.3     1  UNL1       -0.3819
     27 H         144.4637  140.1463  161.6042 H       1  UNL1        0.2107
     28 C         141.5828  138.9605  163.0790 C.ar    1  UNL1        0.0369
     29 C         141.4778  138.2301  164.3850 C.ar    1  UNL1        0.0010
     30 C         140.2338  137.4602  164.7158 C.ar    1  UNL1       -0.0000
     31 C         139.0947  137.4206  163.7406 C.ar    1  UNL1        0.0031
     32 C         139.1996  138.1510  162.4347 C.ar    1  UNL1        0.0375
     33 C         138.2474  138.2924  161.2844 C.ar    1  UNL1        0.0437
     34 C         138.9029  139.1497  160.2426 C.ar    1  UNL1        0.1796
     35 O         140.2603  139.5382  160.7491 O.2     1  UNL1       -0.4507
     36 C         140.4437  138.9210  162.1038 C.ar    1  UNL1        0.1436
     37 C         143.4713  138.4730  162.2449 C.3     1  UNL1        0.0492
     38 C         144.2738  138.4967  160.9778 C.3     1  UNL1        0.0750
     39 N         143.5963  138.7606  159.6658 N.3     1  UNL1       -0.2702
     40 C         143.8235  140.0604  158.9524 C.3     1  UNL1        0.0897
     41 C         142.6917  137.7247  159.0671 C.3     1  UNL1        0.0897
@<TRIPOS>BOND
     1    13    14    1
     2    14     2    1
     3     2     3   ar
     4     3     4   ar
     5     4     5   ar
     6     5     6   ar
     7     6     7   ar
     8     7     8    1
     9     7     9   ar
    10     9    10   ar
    11    10    11   ar
    12    11    12   ar
    13     1    12    1
    14     1    15    1
    15    15    16   ar
    16    16    17   ar
    17    17    18   ar
    18    18    21    1
    19    21    22    1
    20    18    19   ar
    21    19    23    1
    22    23    24    1
    23    19    20   ar
    24     1    25    1
    25    25    26    1
    26    25    37    1
    27    37    38    1
    28    38    39    1
    29    39    40    1
    30    39    41    1
    31    25    28    1
    32    28    29   ar
    33    29    30   ar
    34    30    31   ar
    35    31    32   ar
    36    32    33   ar
    37    33    34   ar
    38    34    35   ar
    39    35    36   ar
    40    12     2   ar
    41    20    15   ar
    42    36    28   ar
    43    10     4   ar
    44    36    32   ar
    45    26    27    1
@<TRIPOS>MOLECULE
*****
 41 45 0 0 0
SMALL
GASTEIGER

@<TRIPOS>ATOM
      1 C         140.8850  140.1259  162.5296 C.3     1  UNL1        0.0777
      2 C         139.2175  138.9024  164.1020 C.ar    1  UNL1        0.1351
      3 C         138.6159  138.7128  165.4629 C.ar    1  UNL1        0.0366
      4 C         139.0803  139.5572  166.6125 C.ar    1  UNL1        0.0030
      5 C         138.4787  139.3676  167.9734 C.ar    1  UNL1        0.0006
      6 C         138.9431  140.2119  169.1229 C.ar    1  UNL1        0.0067
      7 C         140.0091  141.2459  168.9115 C.ar    1  UNL1        0.0346
      8 BR        140.4735  142.0902  170.0611 Br      1  UNL1       -0.0490
      9 C         140.6107  141.4355  167.5506 C.ar    1  UNL1        0.0067
     10 C         140.1463  140.5911  166.4011 C.ar    1  UNL1        0.0004
     11 C         140.7478  140.7807  165.0401 C.ar    1  UNL1       -0.0009
     12 C         140.2834  139.9363  163.8906 C.ar    1  UNL1        0.0182
     13 C         137.7296  138.5923  161.9948 C.3     1  UNL1        0.2525
     14 O         138.7531  138.0580  162.9524 O.3     1  UNL1       -0.4717
     15 C         140.6378  141.3959  161.7706 C.ar    1  UNL1        0.0067
     16 C         141.4057  141.6801  160.5139 C.ar    1  UNL1        0.0984
     17 N         141.1584  142.9501  159.7549 N.ar    1  UNL1       -0.2079
     18 C         140.1433  143.9358  160.2526 C.ar    1  UNL1        0.2601
     19 C         139.3753  143.6515  161.5094 C.ar    1  UNL1        0.1913
     20 C         139.6225  142.3816  162.2684 C.ar    1  UNL1        0.0394
     21 O         139.8960  145.2057  159.4936 O.3     1  UNL1       -0.4541
     22 C         140.8064  145.5955  158.3670 C.3     1  UNL1        0.2543
     23 O         138.3601  144.6372  162.0072 O.3     1  UNL1       -0.4667
     24 C         137.6162  144.3688  163.2818 C.3     1  UNL1        0.2527
     25 C         141.7338  139.0455  161.9277 C.3     1  UNL1        0.1186
     26 O         140.7655  138.9192  160.7891 O.3     1  UNL1       -0.3819
     27 H         140.6979  137.9886  160.5238 H       1  UNL1        0.2107
     28 C         142.7021  139.1719  163.0662 C.ar    1  UNL1        0.0369
     29 C         142.5984  138.2497  164.2448 C.ar    1  UNL1        0.0010
     30 C         143.5667  138.3760  165.3834 C.ar    1  UNL1       -0.0000
     31 C         144.6387  139.4245  165.3435 C.ar    1  UNL1        0.0031
     32 C         144.7423  140.3467  164.1650 C.ar    1  UNL1        0.0375
     33 C         145.6870  141.4678  163.8478 C.ar    1  UNL1        0.0437
     34 C         145.3026  142.0344  162.5132 C.ar    1  UNL1        0.1796
     35 O         144.1203  141.2634  162.0055 O.2     1  UNL1       -0.4507
     36 C         143.7740  140.2204  163.0263 C.ar    1  UNL1        0.1436
     37 C         142.5825  137.9652  161.3257 C.3     1  UNL1        0.0492
     38 C         143.6506  138.3162  160.3328 C.3     1  UNL1        0.0750
     39 N         143.2798  138.6432  158.9165 N.3     1  UNL1       -0.2702
     40 C         143.6271  139.9840  158.3408 C.3     1  UNL1        0.0897
     41 C         142.5617  137.6293  158.0761 C.3     1  UNL1        0.0897
@<TRIPOS>BOND
     1    13    14    1
     2    14     2    1
     3     2     3   ar
     4     3     4   ar
     5     4     5   ar
     6     5     6   ar
     7     6     7   ar
     8     7     8    1
     9     7     9   ar
    10     9    10   ar
    11    10    11   ar
    12    11    12   ar
    13     1    12    1
    14     1    15    1
    15    15    16   ar
    16    16    17   ar
    17    17    18   ar
    18    18    21    1
    19    21    22    1
    20    18    19   ar
    21    19    23    1
    22    23    24    1
    23    19    20   ar
    24     1    25    1
    25    25    26    1
    26    25    37    1
    27    37    38    1
    28    38    39    1
    29    39    40    1
    30    39    41    1
    31    25    28    1
    32    28    29   ar
    33    29    30   ar
    34    30    31   ar
    35    31    32   ar
    36    32    33   ar
    37    33    34   ar
    38    34    35   ar
    39    35    36   ar
    40    12     2   ar
    41    20    15   ar
    42    36    28   ar
    43    10     4   ar
    44    36    32   ar
    45    26    27    1
@<TRIPOS>MOLECULE
*****
 41 45 0 0 0
SMALL
GASTEIGER

@<TRIPOS>ATOM
      1 C         140.9139  140.3174  162.2365 C.3     1  UNL1        0.0777
      2 C         139.2576  138.9686  163.7154 C.ar    1  UNL1        0.1351
      3 C         138.6378  138.6948  165.0536 C.ar    1  UNL1        0.0366
      4 C         139.0544  139.4962  166.2512 C.ar    1  UNL1        0.0030
      5 C         138.4345  139.2225  167.5894 C.ar    1  UNL1        0.0006
      6 C         138.8512  140.0239  168.7870 C.ar    1  UNL1        0.0067
      7 C         139.8877  141.0990  168.6463 C.ar    1  UNL1        0.0346
      8 BR        140.3043  141.9004  169.8439 Br      1  UNL1       -0.0490
      9 C         140.5075  141.3728  167.3081 C.ar    1  UNL1        0.0067
     10 C         140.0909  140.5714  166.1106 C.ar    1  UNL1        0.0004
     11 C         140.7107  140.8451  164.7723 C.ar    1  UNL1       -0.0009
     12 C         140.2941  140.0437  163.5748 C.ar    1  UNL1        0.0182
     13 C         137.6815  138.6183  161.6799 C.3     1  UNL1        0.2525
     14 O         138.8410  138.1671  162.5178 O.3     1  UNL1       -0.4717
     15 C         140.6500  141.6194  161.5399 C.ar    1  UNL1        0.0067
     16 C         139.2805  142.2297  161.5845 C.ar    1  UNL1        0.0984
     17 N         139.0165  143.5316  160.8879 N.ar    1  UNL1       -0.2079
     18 C         140.1221  144.2233  160.1467 C.ar    1  UNL1        0.2601
     19 C         141.4916  143.6130  160.1021 C.ar    1  UNL1        0.1913
     20 C         141.7556  142.3111  160.7987 C.ar    1  UNL1        0.0394
     21 O         139.8581  145.5253  159.4501 O.3     1  UNL1       -0.4541
     22 C         140.0620  145.6379  157.9684 C.3     1  UNL1        0.2543
     23 O         142.5971  144.3047  159.3610 O.3     1  UNL1       -0.4667
     24 C         143.1936  143.6696  158.1399 C.3     1  UNL1        0.2527
     25 C         141.7977  139.2892  161.5948 C.3     1  UNL1        0.1186
     26 O         140.8956  139.2615  160.3968 O.3     1  UNL1       -0.3819
     27 H         140.8451  138.3567  160.0509 H       1  UNL1        0.2107
     28 C         142.6997  139.3169  162.7929 C.ar    1  UNL1        0.0369
     29 C         142.4924  138.3383  163.9107 C.ar    1  UNL1        0.0010
     30 C         143.3945  138.3660  165.1088 C.ar    1  UNL1       -0.0000
     31 C         144.5039  139.3723  165.1892 C.ar    1  UNL1        0.0031
     32 C         144.7113  140.3509  164.0715 C.ar    1  UNL1        0.0375
     33 C         145.7131  141.4493  163.8721 C.ar    1  UNL1        0.0437
     34 C         145.4301  142.1006  162.5508 C.ar    1  UNL1        0.1796
     35 O         144.2535  141.4046  161.9335 O.2     1  UNL1       -0.4507
     36 C         143.8092  140.3232  162.8733 C.ar    1  UNL1        0.1436
     37 C         142.6814  138.2610  160.9532 C.3     1  UNL1        0.0492
     38 C         142.4930  137.9069  159.5078 C.3     1  UNL1        0.0750
     39 N         143.1039  138.7648  158.4397 N.3     1  UNL1       -0.2702
     40 C         142.9095  138.4146  156.9941 C.3     1  UNL1        0.0897
     41 C         143.9091  139.9727  158.8170 C.3     1  UNL1        0.0897
@<TRIPOS>BOND
     1    13    14    1
     2    14     2    1
     3     2     3   ar
     4     3     4   ar
     5     4     5   ar
     6     5     6   ar
     7     6     7   ar
     8     7     8    1
     9     7     9   ar
    10     9    10   ar
    11    10    11   ar
    12    11    12   ar
    13     1    12    1
    14     1    15    1
    15    15    16   ar
    16    16    17   ar
    17    17    18   ar
    18    18    21    1
    19    21    22    1
    20    18    19   ar
    21    19    23    1
    22    23    24    1
    23    19    20   ar
    24     1    25    1
    25    25    26    1
    26    25    37    1
    27    37    38    1
    28    38    39    1
    29    39    40    1
    30    39    41    1
    31    25    28    1
    32    28    29   ar
    33    29    30   ar
    34    30    31   ar
    35    31    32   ar
    36    32    33   ar
    37    33    34   ar
    38    34    35   ar
    39    35    36   ar
    40    12     2   ar
    41    20    15   ar
    42    36    28   ar
    43    10     4   ar
    44    36    32   ar
    45    26    27    1
@<TRIPOS>MOLECULE
*****
 41 45 0 0 0
SMALL
GASTEIGER

@<TRIPOS>ATOM
      1 C         142.0084  141.5902  162.6719 C.3     1  UNL1        0.0777
      2 C         140.2002  142.2305  164.4241 C.ar    1  UNL1        0.1351
      3 C         139.8167  142.5440  165.8399 C.ar    1  UNL1        0.0366
      4 C         140.8581  142.5308  166.9195 C.ar    1  UNL1        0.0030
      5 C         140.4746  142.8443  168.3354 C.ar    1  UNL1        0.0006
      6 C         141.5159  142.8311  169.4149 C.ar    1  UNL1        0.0067
      7 C         142.9408  142.5044  169.0785 C.ar    1  UNL1        0.0346
      8 BR        143.9821  142.4912  170.1581 Br      1  UNL1       -0.0490
      9 C         143.3242  142.1908  167.6627 C.ar    1  UNL1        0.0067
     10 C         142.2829  142.2041  166.5832 C.ar    1  UNL1        0.0004
     11 C         142.6663  141.8905  165.1673 C.ar    1  UNL1       -0.0009
     12 C         141.6250  141.9037  164.0878 C.ar    1  UNL1        0.0182
     13 C         137.7443  141.8583  163.6621 C.3     1  UNL1        0.2525
     14 O         139.1588  142.2436  163.3445 O.3     1  UNL1       -0.4717
     15 C         141.7545  142.5938  161.5863 C.ar    1  UNL1        0.0067
     16 C         141.9691  144.0547  161.8504 C.ar    1  UNL1        0.0984
     17 N         141.7152  145.0582  160.7649 N.ar    1  UNL1       -0.2079
     18 C         141.2467  144.6009  159.4153 C.ar    1  UNL1        0.2601
     19 C         141.0320  143.1400  159.1512 C.ar    1  UNL1        0.1913
     20 C         141.2860  142.1364  160.2367 C.ar    1  UNL1        0.0394
     21 O         140.9927  145.6045  158.3298 O.3     1  UNL1       -0.4541
     22 C         142.0906  145.9716  157.3760 C.3     1  UNL1        0.2543
     23 O         140.5635  142.6827  157.8017 O.3     1  UNL1       -0.4667
     24 C         140.1088  141.2667  157.6057 C.3     1  UNL1        0.2527
     25 C         142.6458  140.2732  162.3415 C.3     1  UNL1        0.1186
     26 O         143.8181  140.9910  161.7414 O.3     1  UNL1       -0.3819
     27 H         144.1382  140.4985  160.9695 H       1  UNL1        0.2107
     28 C         141.4734  139.5553  162.9417 C.ar    1  UNL1        0.0369
     29 C         141.5311  139.0833  164.3643 C.ar    1  UNL1        0.0010
     30 C         140.3587  138.3654  164.9644 C.ar    1  UNL1       -0.0000
     31 C         139.1286  138.1196  164.1420 C.ar    1  UNL1        0.0031
     32 C         139.0709  138.5916  162.7194 C.ar    1  UNL1        0.0375
     33 C         138.0015  138.4940  161.6721 C.ar    1  UNL1        0.0437
     34 C         138.5130  139.1516  160.4246 C.ar    1  UNL1        0.1796
     35 O         139.8985  139.6555  160.7010 O.2     1  UNL1       -0.4507
     36 C         140.2433  139.3095  162.1192 C.ar    1  UNL1        0.1436
     37 C         143.2831  138.9561  162.0112 C.3     1  UNL1        0.0492
     38 C         144.1319  138.8210  160.7819 C.3     1  UNL1        0.0750
     39 N         143.5069  138.9327  159.4229 N.3     1  UNL1       -0.2702
     40 C         142.5710  137.8656  158.9378 C.3     1  UNL1        0.0897
     41 C         143.8177  140.1116  158.5490 C.3     1  UNL1        0.0897
@<TRIPOS>BOND
     1    13    14    1
     2    14     2    1
     3     2     3   ar
     4     3     4   ar
     5     4     5   ar
     6     5     6   ar
     7     6     7   ar
     8     7     8    1
     9     7     9   ar
    10     9    10   ar
    11    10    11   ar
    12    11    12   ar
    13     1    12    1
    14     1    15    1
    15    15    16   ar
    16    16    17   ar
    17    17    18   ar
    18    18    21    1
    19    21    22    1
    20    18    19   ar
    21    19    23    1
    22    23    24    1
    23    19    20   ar
    24     1    25    1
    25    25    26    1
    26    25    37    1
    27    37    38    1
    28    38    39    1
    29    39    40    1
    30    39    41    1
    31    25    28    1
    32    28    29   ar
    33    29    30   ar
    34    30    31   ar
    35    31    32   ar
    36    32    33   ar
    37    33    34   ar
    38    34    35   ar
    39    35    36   ar
    40    12     2   ar
    41    20    15   ar
    42    36    28   ar
    43    10     4   ar
    44    36    32   ar
    45    26    27    1
@<TRIPOS>MOLECULE
*****
 41 45 0 0 0
SMALL
GASTEIGER

@<TRIPOS>ATOM
      1 C         141.0394  141.4807  162.4228 C.3     1  UNL1        0.0777
      2 C         140.4331  139.6832  164.1981 C.ar    1  UNL1        0.1351
      3 C         140.1577  139.3063  165.6236 C.ar    1  UNL1        0.0366
      4 C         140.2132  140.3501  166.6995 C.ar    1  UNL1        0.0030
      5 C         139.9378  139.9732  168.1250 C.ar    1  UNL1        0.0006
      6 C         139.9933  141.0170  169.2008 C.ar    1  UNL1        0.0067
      7 C         140.3242  142.4376  168.8511 C.ar    1  UNL1        0.0346
      8 BR        140.3797  143.4814  169.9270 Br      1  UNL1       -0.0490
      9 C         140.5996  142.8145  167.4256 C.ar    1  UNL1        0.0067
     10 C         140.5441  141.7707  166.3498 C.ar    1  UNL1        0.0004
     11 C         140.8195  142.1476  164.9242 C.ar    1  UNL1       -0.0009
     12 C         140.7640  141.1038  163.8484 C.ar    1  UNL1        0.0182
     13 C         140.9790  137.2858  163.3587 C.3     1  UNL1        0.2525
     14 O         140.3776  138.6394  163.1222 O.3     1  UNL1       -0.4717
     15 C         140.0373  141.1572  161.3546 C.ar    1  UNL1        0.0067
     16 C         138.6140  141.6075  161.5003 C.ar    1  UNL1        0.0984
     17 N         137.6119  141.2841  160.4320 N.ar    1  UNL1       -0.2079
     18 C         138.0331  140.5103  159.2181 C.ar    1  UNL1        0.2601
     19 C         139.4565  140.0599  159.0723 C.ar    1  UNL1        0.1913
     20 C         140.4586  140.3834  160.1405 C.ar    1  UNL1        0.0394
     21 O         137.0310  140.1868  158.1498 O.3     1  UNL1       -0.4541
     22 C         136.9139  141.0661  156.9403 C.3     1  UNL1        0.2543
     23 O         139.8778  139.2862  157.8583 O.3     1  UNL1       -0.4667
     24 C         141.3113  139.3050  157.4170 C.3     1  UNL1        0.2527
     25 C         142.3169  142.1810  162.0656 C.3     1  UNL1        0.1186
     26 O         143.0848  140.9235  162.3467 O.3     1  UNL1       -0.3819
     27 H         143.9398  141.1492  162.7455 H       1  UNL1        0.2107
     28 C         141.5489  143.4384  161.7844 C.ar    1  UNL1        0.0369
     29 C         140.9831  144.2411  162.9183 C.ar    1  UNL1        0.0010
     30 C         140.2152  145.4985  162.6371 C.ar    1  UNL1       -0.0000
     31 C         140.0130  145.9533  161.2221 C.ar    1  UNL1        0.0031
     32 C         140.5788  145.1507  160.0882 C.ar    1  UNL1        0.0375
     33 C         140.5412  145.3483  158.6018 C.ar    1  UNL1        0.0437
     34 C         141.2859  144.2129  157.9643 C.ar    1  UNL1        0.1796
     35 O         141.7838  143.3137  159.0567 O.2     1  UNL1       -0.4507
     36 C         141.3468  143.8932  160.3694 C.ar    1  UNL1        0.1436
     37 C         143.5943  142.8813  161.7083 C.3     1  UNL1        0.0492
     38 C         144.4065  143.5513  162.7767 C.3     1  UNL1        0.0750
     39 N         144.8431  142.7757  163.9841 N.3     1  UNL1       -0.2702
     40 C         145.8274  141.6531  163.8388 C.3     1  UNL1        0.0897
     41 C         144.2956  143.1227  165.3368 C.3     1  UNL1        0.0897
@<TRIPOS>BOND
     1    13    14    1
     2    14     2    1
     3     2     3   ar
     4     3     4   ar
     5     4     5   ar
     6     5     6   ar
     7     6     7   ar
     8     7     8    1
     9     7     9   ar
    10     9    10   ar
    11    10    11   ar
    12    11    12   ar
    13     1    12    1
    14     1    15    1
    15    15    16   ar
    16    16    17   ar
    17    17    18   ar
    18    18    21    1
    19    21    22    1
    20    18    19   ar
    21    19    23    1
    22    23    24    1
    23    19    20   ar
    24     1    25    1
    25    25    26    1
    26    25    37    1
    27    37    38    1
    28    38    39    1
    29    39    40    1
    30    39    41    1
    31    25    28    1
    32    28    29   ar
    33    29    30   ar
    34    30    31   ar
    35    31    32   ar
    36    32    33   ar
    37    33    34   ar
    38    34    35   ar
    39    35    36   ar
    40    12     2   ar
    41    20    15   ar
    42    36    28   ar
    43    10     4   ar
    44    36    32   ar
    45    26    27    1
@<TRIPOS>MOLECULE
*****
 41 45 0 0 0
SMALL
GASTEIGER

@<TRIPOS>ATOM
      1 C         141.1427  140.6610  160.9372 C.3     1  UNL1        0.0777
      2 C         139.1107  139.4882  162.0532 C.ar    1  UNL1        0.1351
      3 C         138.3549  139.0945  163.2876 C.ar    1  UNL1        0.0366
      4 C         138.8755  139.4799  164.6406 C.ar    1  UNL1        0.0030
      5 C         138.1197  139.0862  165.8750 C.ar    1  UNL1        0.0006
      6 C         138.6403  139.4716  167.2279 C.ar    1  UNL1        0.0067
      7 C         139.9166  140.2508  167.3464 C.ar    1  UNL1        0.0346
      8 BR        140.4371  140.6362  168.6994 Br      1  UNL1       -0.0490
      9 C         140.6723  140.6444  166.1120 C.ar    1  UNL1        0.0067
     10 C         140.1518  140.2590  164.7591 C.ar    1  UNL1        0.0004
     11 C         140.9075  140.6527  163.5246 C.ar    1  UNL1       -0.0009
     12 C         140.3870  140.2673  162.1717 C.ar    1  UNL1        0.0182
     13 C         137.6246  140.0003  159.9845 C.3     1  UNL1        0.2525
     14 O         138.5901  139.1027  160.7002 O.3     1  UNL1       -0.4717
     15 C         140.8522  141.9704  160.2656 C.ar    1  UNL1        0.0067
     16 C         141.0314  142.1089  158.7829 C.ar    1  UNL1        0.0984
     17 N         140.7409  143.4183  158.1113 N.ar    1  UNL1       -0.2079
     18 C         140.2712  144.5893  158.9225 C.ar    1  UNL1        0.2601
     19 C         140.0919  144.4509  160.4054 C.ar    1  UNL1        0.1913
     20 C         140.3824  143.1414  161.0769 C.ar    1  UNL1        0.0394
     21 O         139.9807  145.8987  158.2510 O.3     1  UNL1       -0.4541
     22 C         140.1252  146.0271  156.7635 C.3     1  UNL1        0.2543
     23 O         139.6222  145.6218  161.2166 O.3     1  UNL1       -0.4667
     24 C         139.4783  145.4943  162.7043 C.3     1  UNL1        0.2527
     25 C         142.1889  139.7452  160.3743 C.3     1  UNL1        0.1186
     26 O         141.1263  138.9826  159.6401 O.3     1  UNL1       -0.3819
     27 H         141.3540  138.0397  159.6293 H       1  UNL1        0.2107
     28 C         143.2515  140.5079  161.1085 C.ar    1  UNL1        0.0369
     29 C         143.8130  141.7680  160.5193 C.ar    1  UNL1        0.0010
     30 C         144.8756  142.5307  161.2535 C.ar    1  UNL1       -0.0000
     31 C         145.3768  142.0333  162.5770 C.ar    1  UNL1        0.0031
     32 C         144.8154  140.7734  163.1662 C.ar    1  UNL1        0.0375
     33 C         145.1107  140.0441  164.4432 C.ar    1  UNL1        0.0437
     34 C         144.2306  138.8307  164.4983 C.ar    1  UNL1        0.1796
     35 O         143.3913  138.8100  163.2553 O.2     1  UNL1       -0.4507
     36 C         143.7527  140.0106  162.4319 C.ar    1  UNL1        0.1436
     37 C         143.2351  138.8295  159.8114 C.3     1  UNL1        0.0492
     38 C         142.8602  137.8063  158.7806 C.3     1  UNL1        0.0750
     39 N         143.1519  138.0601  157.3312 N.3     1  UNL1       -0.2702
     40 C         143.3562  139.4633  156.8418 C.3     1  UNL1        0.0897
     41 C         143.2392  136.9108  156.3713 C.3     1  UNL1        0.0897
@<TRIPOS>BOND
     1    13    14    1
     2    14     2    1
     3     2     3   ar
     4     3     4   ar
     5     4     5   ar
     6     5     6   ar
     7     6     7   ar
     8     7     8    1
     9     7     9   ar
    10     9    10   ar
    11    10    11   ar
    12    11    12   ar
    13     1    12    1
    14     1    15    1
    15    15    16   ar
    16    16    17   ar
    17    17    18   ar
    18    18    21    1
    19    21    22    1
    20    18    19   ar
    21    19    23    1
    22    23    24    1
    23    19    20   ar
    24     1    25    1
    25    25    26    1
    26    25    37    1
    27    37    38    1
    28    38    39    1
    29    39    40    1
    30    39    41    1
    31    25    28    1
    32    28    29   ar
    33    29    30   ar
    34    30    31   ar
    35    31    32   ar
    36    32    33   ar
    37    33    34   ar
    38    34    35   ar
    39    35    36   ar
    40    12     2   ar
    41    20    15   ar
    42    36    28   ar
    43    10     4   ar
    44    36    32   ar
    45    26    27    1
@<TRIPOS>MOLECULE
*****
 41 45 0 0 0
SMALL
GASTEIGER

@<TRIPOS>ATOM
      1 C         140.5997  141.2956  165.4024 C.3     1  UNL1        0.0777
      2 C         138.9393  139.6903  164.2125 C.ar    1  UNL1        0.1351
      3 C         138.5706  138.8473  163.0278 C.ar    1  UNL1        0.0366
      4 C         139.4938  138.7667  161.8483 C.ar    1  UNL1        0.0030
      5 C         139.1251  137.9238  160.6636 C.ar    1  UNL1        0.0006
      6 C         140.0483  137.8432  159.4841 C.ar    1  UNL1        0.0067
      7 C         141.3401  138.6056  159.4892 C.ar    1  UNL1        0.0346
      8 BR        142.2632  138.5250  158.3096 Br      1  UNL1       -0.0490
      9 C         141.7087  139.4486  160.6739 C.ar    1  UNL1        0.0067
     10 C         140.7856  139.5291  161.8534 C.ar    1  UNL1        0.0004
     11 C         141.1542  140.3721  163.0382 C.ar    1  UNL1       -0.0009
     12 C         140.2311  140.4526  164.2177 C.ar    1  UNL1        0.0182
     13 C         138.0251  138.6851  166.4270 C.3     1  UNL1        0.2525
     14 O         138.0161  139.7708  165.3921 O.3     1  UNL1       -0.4717
     15 C         141.1742  140.6534  166.6302 C.ar    1  UNL1        0.0067
     16 C         142.3376  139.7141  166.5108 C.ar    1  UNL1        0.0984
     17 N         142.9121  139.0718  167.7386 N.ar    1  UNL1       -0.2079
     18 C         142.3232  139.3688  169.0858 C.ar    1  UNL1        0.2601
     19 C         141.1597  140.3081  169.2053 C.ar    1  UNL1        0.1913
     20 C         140.5853  140.9504  167.9775 C.ar    1  UNL1        0.0394
     21 O         142.8977  138.7266  170.3136 O.3     1  UNL1       -0.4541
     22 C         143.5294  137.3691  170.2242 C.3     1  UNL1        0.2543
     23 O         140.5709  140.6051  170.5524 O.3     1  UNL1       -0.4667
     24 C         141.0310  141.8066  171.3238 C.3     1  UNL1        0.2527
     25 C         140.3939  142.7808  165.3594 C.3     1  UNL1        0.1186
     26 O         138.9257  142.5841  165.5952 O.3     1  UNL1       -0.3819
     27 H         138.4259  143.2461  165.0922 H       1  UNL1        0.2107
     28 C         141.8621  142.9774  165.1236 C.ar    1  UNL1        0.0369
     29 C         142.8192  142.9368  166.2779 C.ar    1  UNL1        0.0010
     30 C         144.2874  143.1335  166.0421 C.ar    1  UNL1       -0.0000
     31 C         144.7986  143.3708  164.6520 C.ar    1  UNL1        0.0031
     32 C         143.8416  143.4114  163.4977 C.ar    1  UNL1        0.0375
     33 C         144.0505  143.6247  162.0278 C.ar    1  UNL1        0.0437
     34 C         142.7113  143.5599  161.3550 C.ar    1  UNL1        0.1796
     35 O         141.6748  143.3065  162.4092 O.2     1  UNL1       -0.4507
     36 C         142.3733  143.2147  163.7335 C.ar    1  UNL1        0.1436
     37 C         140.1880  144.2659  165.3163 C.3     1  UNL1        0.0492
     38 C         138.9432  144.8330  164.7008 C.3     1  UNL1        0.0750
     39 N         138.7356  144.7511  163.2174 N.3     1  UNL1       -0.2702
     40 C         137.8817  143.6622  162.6386 C.3     1  UNL1        0.0897
     41 C         139.3820  145.7582  162.3129 C.3     1  UNL1        0.0897
@<TRIPOS>BOND
     1    13    14    1
     2    14     2    1
     3     2     3   ar
     4     3     4   ar
     5     4     5   ar
     6     5     6   ar
     7     6     7   ar
     8     7     8    1
     9     7     9   ar
    10     9    10   ar
    11    10    11   ar
    12    11    12   ar
    13     1    12    1
    14     1    15    1
    15    15    16   ar
    16    16    17   ar
    17    17    18   ar
    18    18    21    1
    19    21    22    1
    20    18    19   ar
    21    19    23    1
    22    23    24    1
    23    19    20   ar
    24     1    25    1
    25    25    26    1
    26    25    37    1
    27    37    38    1
    28    38    39    1
    29    39    40    1
    30    39    41    1
    31    25    28    1
    32    28    29   ar
    33    29    30   ar
    34    30    31   ar
    35    31    32   ar
    36    32    33   ar
    37    33    34   ar
    38    34    35   ar
    39    35    36   ar
    40    12     2   ar
    41    20    15   ar
    42    36    28   ar
    43    10     4   ar
    44    36    32   ar
    45    26    27    1
