@<TRIPOS>MOLECULE
*****
 49 54 0 0 0
SMALL
GASTEIGER

@<TRIPOS>ATOM
      1 C         139.5982  138.7154  156.2858 C.3     1  UNL1        0.1318
      2 C         139.9432  137.4004  155.6518 C.3     1  UNL1        0.1741
      3 C         138.7107  137.6502  154.8341 C.3     1  UNL1        0.0473
      4 C         140.0305  136.1377  154.8469 C.3     1  UNL1        0.1446
      5 N         141.2448  135.3825  155.2996 N.am    1  UNL1       -0.2060
      6 C         141.9080  136.1785  156.3844 C.2     1  UNL1        0.4097
      7 O         143.1565  135.7946  157.1220 O.2     1  UNL1       -0.2258
      8 O         141.1036  137.4256  156.6021 O.3     1  UNL1       -0.4381
      9 C         141.7137  134.0630  154.7621 C.ar    1  UNL1        0.1400
     10 C         141.7894  133.8409  153.2805 C.ar    1  UNL1        0.0348
     11 C         142.2583  132.5215  152.7429 C.ar    1  UNL1        0.0045
     12 C         142.6515  131.4240  153.6868 C.ar    1  UNL1        0.0222
     13 C         142.5758  131.6460  155.1683 C.ar    1  UNL1        0.1004
     14 N         142.1069  132.9655  155.7060 N.ar    1  UNL1       -0.2287
     15 C         143.1204  130.1045  153.1491 C.ar    1  UNL1        0.0358
     16 C         144.5835  129.7738  153.1441 C.ar    1  UNL1        0.0031
     17 C         145.0523  128.4543  152.6064 C.ar    1  UNL1        0.0002
     18 C         144.0581  127.4655  152.0737 C.ar    1  UNL1        0.0031
     19 C         142.5951  127.7962  152.0787 C.ar    1  UNL1        0.0372
     20 C         142.1262  129.1156  152.6164 C.ar    1  UNL1        0.1468
     21 O         140.6631  129.4463  152.6213 O.3     1  UNL1       -0.4045
     22 C         139.9360  129.6121  153.9228 C.3     1  UNL1        0.5753
     23 F         139.2090  129.7778  155.2243 F       1  UNL1       -0.1328
     24 F         140.5488  128.3393  154.4272 F       1  UNL1       -0.1328
     25 F         139.3233  130.8849  153.4184 F       1  UNL1       -0.1328
     26 C         139.1136  139.6734  158.6517 C.2     1  UNL1        0.2459
     27 O         137.7214  140.0300  158.2222 O.2     1  UNL1       -0.2701
     28 N         140.0520  139.0161  157.6835 N.am    1  UNL1       -0.2976
     29 H         140.9658  138.7821  157.9655 H       1  UNL1        0.1499
     30 C         140.4752  140.5755  162.8449 C.ar    1  UNL1        0.0536
     31 C         140.7964  139.2498  162.2209 C.ar    1  UNL1        0.0048
     32 C         140.3425  138.9492  160.8232 C.ar    1  UNL1        0.0047
     33 C         139.5675  139.9741  160.0494 C.ar    1  UNL1        0.0534
     34 C         139.2462  141.2998  160.6734 C.ar    1  UNL1        0.0047
     35 C         139.7001  141.6005  162.0711 C.ar    1  UNL1        0.0048
     36 C         140.7787  140.9552  168.1456 C.ar    1  UNL1        0.0143
     37 C         141.7925  141.5377  169.0852 C.ar    1  UNL1        0.0091
     38 C         143.0340  142.1819  168.5435 C.ar    1  UNL1        0.0698
     39 C         143.2619  142.2436  167.0622 C.ar    1  UNL1        0.0326
     40 C         142.2481  141.6611  166.1226 C.ar    1  UNL1        0.1192
     41 N         142.2002  141.5741  164.6259 N.ar    1  UNL1       -0.2082
     42 C         140.9290  140.8762  164.2426 C.ar    1  UNL1        0.2296
     43 O         140.1912  140.5318  165.5024 O.2     1  UNL1       -0.4349
     44 C         141.0065  141.0169  166.6643 C.ar    1  UNL1        0.1607
     45 C         139.1533  140.5120  170.1234 C.3     1  UNL1        0.0048
     46 C         139.5371  140.3110  168.6874 C.3     1  UNL1        0.0254
     47 C         138.6793  139.4657  167.7930 C.3     1  UNL1        0.0048
     48 C         144.0479  142.7644  169.4832 C.1     1  UNL1        0.1005
     49 N         145.0617  143.3470  170.4228 N.1     1  UNL1       -0.1908
@<TRIPOS>BOND
     1    45    46    1
     2    46    47    1
     3    46    36    1
     4    36    37   ar
     5    37    38   ar
     6    38    48    1
     7    48    49    3
     8    38    39   ar
     9    39    40   ar
    10    40    41   ar
    11    41    42   ar
    12    42    30    1
    13    30    31   ar
    14    31    32   ar
    15    32    33   ar
    16    33    26    1
    17    26    27    2
    18    26    28   am
    19    28     1    1
    20     1     2    1
    21     2     3    1
    22     2     4    1
    23     4     5    1
    24     5     9    1
    25     9    10   ar
    26    10    11   ar
    27    11    12   ar
    28    12    15    1
    29    15    16   ar
    30    16    17   ar
    31    17    18   ar
    32    18    19   ar
    33    19    20   ar
    34    20    21    1
    35    21    22    1
    36    22    23    1
    37    22    24    1
    38    22    25    1
    39    12    13   ar
    40    13    14   ar
    41     5     6   am
    42     6     7    2
    43     6     8    1
    44    33    34   ar
    45    34    35   ar
    46    42    43   ar
    47    43    44   ar
    48    44    36   ar
    49    44    40   ar
    50    35    30   ar
    51     8     2    1
    52    14     9   ar
    53    20    15   ar
    54    28    29    1
@<TRIPOS>MOLECULE
*****
 49 54 0 0 0
SMALL
GASTEIGER

@<TRIPOS>ATOM
      1 C         143.6033  138.3417  155.8472 C.3     1  UNL1        0.1318
      2 C         143.1436  137.0554  155.2275 C.3     1  UNL1        0.1741
      3 C         142.6222  137.9482  154.1407 C.3     1  UNL1        0.0473
      4 C         142.5749  135.9557  154.3806 C.3     1  UNL1        0.1446
      5 N         142.8408  134.6523  155.0735 N.am    1  UNL1       -0.2060
      6 C         143.5739  134.9464  156.3487 C.2     1  UNL1        0.4097
      7 O         144.0384  133.9330  157.3525 O.2     1  UNL1       -0.2258
      8 O         143.7611  136.4315  156.4439 O.3     1  UNL1       -0.4381
      9 C         142.4435  133.2933  154.5783 C.ar    1  UNL1        0.1400
     10 C         141.9646  132.2527  155.5467 C.ar    1  UNL1        0.0348
     11 C         141.5673  130.8936  155.0516 C.ar    1  UNL1        0.0045
     12 C         141.6489  130.5752  153.5881 C.ar    1  UNL1        0.0222
     13 C         142.1278  131.6158  152.6197 C.ar    1  UNL1        0.1004
     14 N         142.5251  132.9748  153.1147 N.ar    1  UNL1       -0.2287
     15 C         141.2515  129.2162  153.0930 C.ar    1  UNL1        0.0358
     16 C         139.8005  128.8500  152.9899 C.ar    1  UNL1        0.0031
     17 C         139.4033  127.4910  152.4949 C.ar    1  UNL1        0.0002
     18 C         140.4570  126.4980  152.1028 C.ar    1  UNL1        0.0031
     19 C         141.9079  126.8640  152.2059 C.ar    1  UNL1        0.0372
     20 C         142.3052  128.2231  152.7010 C.ar    1  UNL1        0.1468
     21 O         143.7562  128.5891  152.8040 O.3     1  UNL1       -0.4045
     22 C         144.3901  128.7706  154.1513 C.3     1  UNL1        0.5753
     23 F         145.0240  128.9521  155.4986 F       1  UNL1       -0.1328
     24 F         144.9539  130.0882  153.7086 F       1  UNL1       -0.1328
     25 F         143.8263  127.4530  154.5940 F       1  UNL1       -0.1328
     26 C         144.0133  139.7235  158.0089 C.2     1  UNL1        0.2459
     27 O         145.0954  140.4934  157.3115 O.2     1  UNL1       -0.2701
     28 N         143.2673  138.6477  157.2767 N.am    1  UNL1       -0.2976
     29 H         142.5570  138.1424  157.7345 H       1  UNL1        0.1499
     30 C         143.0052  140.6415  162.2974 C.ar    1  UNL1        0.0536
     31 C         142.7568  141.6681  161.2322 C.ar    1  UNL1        0.0048
     32 C         143.0929  141.3620  159.8027 C.ar    1  UNL1        0.0047
     33 C         143.6773  140.0295  159.4384 C.ar    1  UNL1        0.0534
     34 C         143.9257  139.0029  160.5035 C.ar    1  UNL1        0.0047
     35 C         143.5896  139.3090  161.9330 C.ar    1  UNL1        0.0048
     36 C         140.5529  140.9656  167.0107 C.ar    1  UNL1        0.0143
     37 C         140.9159  141.5894  168.3256 C.ar    1  UNL1        0.0091
     38 C         142.2239  142.3071  168.4795 C.ar    1  UNL1        0.0698
     39 C         143.1691  142.4010  167.3184 C.ar    1  UNL1        0.0326
     40 C         142.8061  141.7772  166.0035 C.ar    1  UNL1        0.1192
     41 N         143.5299  141.7080  164.6916 N.ar    1  UNL1       -0.2082
     42 C         142.6691  140.9475  163.7269 C.ar    1  UNL1        0.2296
     43 O         141.4133  140.5467  164.4426 O.2     1  UNL1       -0.4349
     44 C         141.4979  141.0595  165.8497 C.ar    1  UNL1        0.1607
     45 C         138.4997  140.3170  165.5568 C.3     1  UNL1        0.0048
     46 C         139.2447  140.2478  166.8568 C.3     1  UNL1        0.0254
     47 C         138.6816  139.4609  168.0031 C.3     1  UNL1        0.0048
     48 C         142.5870  142.9310  169.7945 C.1     1  UNL1        0.1005
     49 N         142.9500  143.5549  171.1094 N.1     1  UNL1       -0.1908
@<TRIPOS>BOND
     1    45    46    1
     2    46    47    1
     3    46    36    1
     4    36    37   ar
     5    37    38   ar
     6    38    48    1
     7    48    49    3
     8    38    39   ar
     9    39    40   ar
    10    40    41   ar
    11    41    42   ar
    12    42    30    1
    13    30    31   ar
    14    31    32   ar
    15    32    33   ar
    16    33    26    1
    17    26    27    2
    18    26    28   am
    19    28     1    1
    20     1     2    1
    21     2     3    1
    22     2     4    1
    23     4     5    1
    24     5     9    1
    25     9    10   ar
    26    10    11   ar
    27    11    12   ar
    28    12    15    1
    29    15    16   ar
    30    16    17   ar
    31    17    18   ar
    32    18    19   ar
    33    19    20   ar
    34    20    21    1
    35    21    22    1
    36    22    23    1
    37    22    24    1
    38    22    25    1
    39    12    13   ar
    40    13    14   ar
    41     5     6   am
    42     6     7    2
    43     6     8    1
    44    33    34   ar
    45    34    35   ar
    46    42    43   ar
    47    43    44   ar
    48    44    36   ar
    49    44    40   ar
    50    35    30   ar
    51     8     2    1
    52    14     9   ar
    53    20    15   ar
    54    28    29    1
@<TRIPOS>MOLECULE
*****
 49 54 0 0 0
SMALL
GASTEIGER

@<TRIPOS>ATOM
      1 C         141.6724  138.5055  156.2917 C.3     1  UNL1        0.1318
      2 C         142.2001  137.1150  156.4866 C.3     1  UNL1        0.1741
      3 C         142.3786  137.5514  157.9105 C.3     1  UNL1        0.0473
      4 C         142.7651  135.8157  156.9791 C.3     1  UNL1        0.1446
      5 N         142.8255  134.8670  155.8189 N.am    1  UNL1       -0.2060
      6 C         142.2978  135.5799  154.6092 C.2     1  UNL1        0.4097
      7 O         142.1778  135.0045  153.2291 O.2     1  UNL1       -0.2258
      8 O         141.9113  136.9692  155.0218 O.3     1  UNL1       -0.4381
      9 C         143.3258  133.4535  155.8608 C.ar    1  UNL1        0.1400
     10 C         144.4527  133.0838  156.7791 C.ar    1  UNL1        0.0348
     11 C         144.9531  131.6703  156.8211 C.ar    1  UNL1        0.0045
     12 C         144.3264  130.6266  155.9448 C.ar    1  UNL1        0.0222
     13 C         143.1995  130.9963  155.0265 C.ar    1  UNL1        0.1004
     14 N         142.6991  132.4098  154.9845 N.ar    1  UNL1       -0.2287
     15 C         144.8268  129.2131  155.9868 C.ar    1  UNL1        0.0358
     16 C         145.3618  128.5694  154.7420 C.ar    1  UNL1        0.0031
     17 C         145.8621  127.1560  154.7841 C.ar    1  UNL1        0.0002
     18 C         145.8274  126.3861  156.0710 C.ar    1  UNL1        0.0031
     19 C         145.2925  127.0297  157.3158 C.ar    1  UNL1        0.0372
     20 C         144.7922  128.4431  157.2738 C.ar    1  UNL1        0.1468
     21 O         144.2572  129.0867  158.5186 O.3     1  UNL1       -0.4045
     22 C         143.1085  128.4606  159.2524 C.3     1  UNL1        0.5753
     23 F         141.9597  127.8346  159.9861 F       1  UNL1       -0.1328
     24 F         143.8552  128.6057  160.5452 F       1  UNL1       -0.1328
     25 F         142.3618  128.3156  157.9596 F       1  UNL1       -0.1328
     26 C         139.5160  139.5544  155.2917 C.2     1  UNL1        0.2459
     27 O         140.3099  140.0828  154.1339 O.2     1  UNL1       -0.2701
     28 N         140.1972  138.7658  156.3706 N.am    1  UNL1       -0.2976
     29 H         139.6762  138.4190  157.1305 H       1  UNL1        0.1499
     30 C         135.0906  140.3354  155.5285 C.ar    1  UNL1        0.0536
     31 C         136.0332  141.0835  156.4239 C.ar    1  UNL1        0.0048
     32 C         137.5083  140.8231  156.3450 C.ar    1  UNL1        0.0047
     33 C         138.0409  139.8147  155.3706 C.ar    1  UNL1        0.0534
     34 C         137.0983  139.0666  154.4752 C.ar    1  UNL1        0.0047
     35 C         135.6232  139.3269  154.5541 C.ar    1  UNL1        0.0048
     36 C         129.9059  140.0308  156.6948 C.ar    1  UNL1        0.0143
     37 C         128.7095  140.8516  156.3144 C.ar    1  UNL1        0.0091
     38 C         128.8715  142.0424  155.4168 C.ar    1  UNL1        0.0698
     39 C         130.2301  142.4124  154.8997 C.ar    1  UNL1        0.0326
     40 C         131.4266  141.5916  155.2801 C.ar    1  UNL1        0.1192
     41 N         132.8796  141.7121  154.9277 N.ar    1  UNL1       -0.2082
     42 C         133.6155  140.5957  155.6074 C.ar    1  UNL1        0.2296
     43 O         132.6173  139.7852  156.3800 O.2     1  UNL1       -0.4349
     44 C         131.2644  140.4008  156.1777 C.ar    1  UNL1        0.1607
     45 C         129.2017  139.0149  158.9800 C.3     1  UNL1        0.0048
     46 C         129.7438  138.8399  157.5924 C.3     1  UNL1        0.0254
     47 C         130.1238  137.4740  157.1023 C.3     1  UNL1        0.0048
     48 C         127.6750  142.8633  155.0364 C.1     1  UNL1        0.1005
     49 N         126.4786  143.6841  154.6559 N.1     1  UNL1       -0.1908
@<TRIPOS>BOND
     1    45    46    1
     2    46    47    1
     3    46    36    1
     4    36    37   ar
     5    37    38   ar
     6    38    48    1
     7    48    49    3
     8    38    39   ar
     9    39    40   ar
    10    40    41   ar
    11    41    42   ar
    12    42    30    1
    13    30    31   ar
    14    31    32   ar
    15    32    33   ar
    16    33    26    1
    17    26    27    2
    18    26    28   am
    19    28     1    1
    20     1     2    1
    21     2     3    1
    22     2     4    1
    23     4     5    1
    24     5     9    1
    25     9    10   ar
    26    10    11   ar
    27    11    12   ar
    28    12    15    1
    29    15    16   ar
    30    16    17   ar
    31    17    18   ar
    32    18    19   ar
    33    19    20   ar
    34    20    21    1
    35    21    22    1
    36    22    23    1
    37    22    24    1
    38    22    25    1
    39    12    13   ar
    40    13    14   ar
    41     5     6   am
    42     6     7    2
    43     6     8    1
    44    33    34   ar
    45    34    35   ar
    46    42    43   ar
    47    43    44   ar
    48    44    36   ar
    49    44    40   ar
    50    35    30   ar
    51     8     2    1
    52    14     9   ar
    53    20    15   ar
    54    28    29    1
@<TRIPOS>MOLECULE
*****
 49 54 0 0 0
SMALL
GASTEIGER

@<TRIPOS>ATOM
      1 C         143.4333  138.4942  155.5297 C.3     1  UNL1        0.1318
      2 C         142.9546  137.1901  154.9640 C.3     1  UNL1        0.1741
      3 C         142.6067  138.0189  153.7632 C.3     1  UNL1        0.0473
      4 C         142.4032  136.0592  154.1473 C.3     1  UNL1        0.1446
      5 N         142.5103  134.8041  154.9615 N.am    1  UNL1       -0.2060
      6 C         143.1279  135.1592  156.2815 C.2     1  UNL1        0.4097
      7 O         143.4197  134.2068  157.4031 O.2     1  UNL1       -0.2258
      8 O         143.4026  136.6338  156.2831 O.3     1  UNL1       -0.4381
      9 C         142.0760  133.4342  154.5314 C.ar    1  UNL1        0.1400
     10 C         142.6430  132.8252  153.2834 C.ar    1  UNL1        0.0348
     11 C         142.2089  131.4553  152.8532 C.ar    1  UNL1        0.0045
     12 C         141.2077  130.6946  153.6710 C.ar    1  UNL1        0.0222
     13 C         140.6407  131.3037  154.9191 C.ar    1  UNL1        0.1004
     14 N         141.0749  132.6735  155.3493 N.ar    1  UNL1       -0.2287
     15 C         140.7736  129.3248  153.2408 C.ar    1  UNL1        0.0358
     16 C         139.5397  129.1571  152.4045 C.ar    1  UNL1        0.0031
     17 C         139.1056  127.7873  151.9744 C.ar    1  UNL1        0.0002
     18 C         139.9054  126.5850  152.3805 C.ar    1  UNL1        0.0031
     19 C         141.1392  126.7526  153.2167 C.ar    1  UNL1        0.0372
     20 C         141.5734  128.1224  153.6469 C.ar    1  UNL1        0.1468
     21 O         142.8073  128.2900  154.4832 O.3     1  UNL1       -0.4045
     22 C         142.6896  128.4498  155.9700 C.3     1  UNL1        0.5753
     23 F         142.5720  128.6096  157.4568 F       1  UNL1       -0.1328
     24 F         143.4089  129.7634  155.8858 F       1  UNL1       -0.1328
     25 F         141.9703  127.1362  156.0543 F       1  UNL1       -0.1328
     26 C         143.9193  139.8023  157.7212 C.2     1  UNL1        0.2459
     27 O         145.2150  140.2893  157.1432 O.2     1  UNL1       -0.2701
     28 N         143.0285  138.9047  156.9145 N.am    1  UNL1       -0.2976
     29 H         142.1781  138.5851  157.2939 H       1  UNL1        0.1499
     30 C         142.7049  141.0340  161.8755 C.ar    1  UNL1        0.0536
     31 C         142.4568  141.9547  160.7177 C.ar    1  UNL1        0.0048
     32 C         142.8616  141.5441  159.3329 C.ar    1  UNL1        0.0047
     33 C         143.5146  140.2128  159.1060 C.ar    1  UNL1        0.0534
     34 C         143.7627  139.2921  160.2639 C.ar    1  UNL1        0.0047
     35 C         143.3578  139.7028  161.6487 C.ar    1  UNL1        0.0048
     36 C         140.0753  143.0504  166.0413 C.ar    1  UNL1        0.0143
     37 C         140.3504  143.0967  167.5151 C.ar    1  UNL1        0.0091
     38 C         141.6017  142.4781  168.0643 C.ar    1  UNL1        0.0698
     39 C         142.5780  141.8133  167.1396 C.ar    1  UNL1        0.0326
     40 C         142.3029  141.7670  165.6658 C.ar    1  UNL1        0.1192
     41 N         143.0745  141.1854  164.5186 N.ar    1  UNL1       -0.2082
     42 C         142.3001  141.4445  163.2603 C.ar    1  UNL1        0.2296
     43 O         141.0499  142.1863  163.6299 O.2     1  UNL1       -0.4349
     44 C         141.0515  142.3856  165.1166 C.ar    1  UNL1        0.1607
     45 C         137.9438  142.8842  164.5651 C.3     1  UNL1        0.0048
     46 C         138.8240  143.6690  165.4921 C.3     1  UNL1        0.0254
     47 C         138.4529  145.0725  165.8700 C.3     1  UNL1        0.0048
     48 C         141.8768  142.5244  169.5382 C.1     1  UNL1        0.1005
     49 N         142.1519  142.5706  171.0120 N.1     1  UNL1       -0.1908
@<TRIPOS>BOND
     1    45    46    1
     2    46    47    1
     3    46    36    1
     4    36    37   ar
     5    37    38   ar
     6    38    48    1
     7    48    49    3
     8    38    39   ar
     9    39    40   ar
    10    40    41   ar
    11    41    42   ar
    12    42    30    1
    13    30    31   ar
    14    31    32   ar
    15    32    33   ar
    16    33    26    1
    17    26    27    2
    18    26    28   am
    19    28     1    1
    20     1     2    1
    21     2     3    1
    22     2     4    1
    23     4     5    1
    24     5     9    1
    25     9    10   ar
    26    10    11   ar
    27    11    12   ar
    28    12    15    1
    29    15    16   ar
    30    16    17   ar
    31    17    18   ar
    32    18    19   ar
    33    19    20   ar
    34    20    21    1
    35    21    22    1
    36    22    23    1
    37    22    24    1
    38    22    25    1
    39    12    13   ar
    40    13    14   ar
    41     5     6   am
    42     6     7    2
    43     6     8    1
    44    33    34   ar
    45    34    35   ar
    46    42    43   ar
    47    43    44   ar
    48    44    36   ar
    49    44    40   ar
    50    35    30   ar
    51     8     2    1
    52    14     9   ar
    53    20    15   ar
    54    28    29    1
@<TRIPOS>MOLECULE
*****
 49 54 0 0 0
SMALL
GASTEIGER

@<TRIPOS>ATOM
      1 C         140.2154  139.3718  157.5234 C.3     1  UNL1        0.1318
      2 C         141.4796  140.0416  157.0727 C.3     1  UNL1        0.1741
      3 C         140.7555  141.3033  157.4386 C.3     1  UNL1        0.0473
      4 C         142.5924  140.9752  156.6985 C.3     1  UNL1        0.1446
      5 N         143.7399  140.1505  156.1956 N.am    1  UNL1       -0.2060
      6 C         143.3363  138.7072  156.2590 C.2     1  UNL1        0.4097
      7 O         144.1814  137.5366  155.8517 O.2     1  UNL1       -0.2258
      8 O         141.9393  138.6398  156.8011 O.3     1  UNL1       -0.4381
      9 C         145.0594  140.6766  155.7139 C.ar    1  UNL1        0.1400
     10 C         145.5809  140.2731  154.3665 C.ar    1  UNL1        0.0348
     11 C         146.9004  140.7991  153.8846 C.ar    1  UNL1        0.0045
     12 C         147.6985  141.7286  154.7501 C.ar    1  UNL1        0.0222
     13 C         147.1770  142.1321  156.0975 C.ar    1  UNL1        0.1004
     14 N         145.8575  141.6061  156.5793 N.ar    1  UNL1       -0.2287
     15 C         149.0180  142.2546  154.2683 C.ar    1  UNL1        0.0358
     16 C         150.2818  141.8781  154.9831 C.ar    1  UNL1        0.0031
     17 C         151.6012  142.4041  154.5012 C.ar    1  UNL1        0.0002
     18 C         151.6570  143.3066  153.3044 C.ar    1  UNL1        0.0031
     19 C         150.3933  143.6831  152.5895 C.ar    1  UNL1        0.0372
     20 C         149.0737  143.1571  153.0714 C.ar    1  UNL1        0.1468
     21 O         147.8100  143.5336  152.3564 O.3     1  UNL1       -0.4045
     22 C         146.7742  144.3661  153.0521 C.3     1  UNL1        0.5753
     23 F         145.7384  145.1986  153.7478 F       1  UNL1       -0.1328
     24 F         145.6978  143.4571  152.5374 F       1  UNL1       -0.1328
     25 F         147.8506  145.2751  153.5669 F       1  UNL1       -0.1328
     26 C         140.6128  138.7854  160.0230 C.2     1  UNL1        0.2459
     27 O         141.8543  138.0314  159.6488 O.2     1  UNL1       -0.2701
     28 N         139.7933  139.4556  158.9604 N.am    1  UNL1       -0.2976
     29 H         138.9785  139.9505  159.2060 H       1  UNL1        0.1499
     30 C         139.3466  139.0368  164.3340 C.ar    1  UNL1        0.0536
     31 C         138.6536  138.0866  163.4029 C.ar    1  UNL1        0.0048
     32 C         139.0757  138.0029  161.9660 C.ar    1  UNL1        0.0047
     33 C         140.1908  138.8692  161.4600 C.ar    1  UNL1        0.0534
     34 C         140.8838  139.8194  162.3911 C.ar    1  UNL1        0.0047
     35 C         140.4617  139.9031  163.8280 C.ar    1  UNL1        0.0048
     36 C         139.0108  140.3056  169.4926 C.ar    1  UNL1        0.0143
     37 C         138.0948  139.8865  170.6041 C.ar    1  UNL1        0.0091
     38 C         136.9938  138.9032  170.3381 C.ar    1  UNL1        0.0698
     39 C         136.8087  138.3388  168.9606 C.ar    1  UNL1        0.0326
     40 C         137.7247  138.7579  167.8492 C.ar    1  UNL1        0.1192
     41 N         137.7858  138.3743  166.4004 N.ar    1  UNL1       -0.2082
     42 C         138.9246  139.1206  165.7709 C.ar    1  UNL1        0.2296
     43 O         139.5673  139.9654  166.8307 O.2     1  UNL1       -0.4349
     44 C         138.8257  139.7413  168.1152 C.ar    1  UNL1        0.1607
     45 C         139.7873  142.6502  170.2988 C.3     1  UNL1        0.0048
     46 C         140.1118  141.2889  169.7586 C.3     1  UNL1        0.0254
     47 C         141.5374  140.9110  169.4845 C.3     1  UNL1        0.0048
     48 C         136.0778  138.4841  171.4496 C.1     1  UNL1        0.1005
     49 N         135.1618  138.0650  172.5610 N.1     1  UNL1       -0.1908
@<TRIPOS>BOND
     1    45    46    1
     2    46    47    1
     3    46    36    1
     4    36    37   ar
     5    37    38   ar
     6    38    48    1
     7    48    49    3
     8    38    39   ar
     9    39    40   ar
    10    40    41   ar
    11    41    42   ar
    12    42    30    1
    13    30    31   ar
    14    31    32   ar
    15    32    33   ar
    16    33    26    1
    17    26    27    2
    18    26    28   am
    19    28     1    1
    20     1     2    1
    21     2     3    1
    22     2     4    1
    23     4     5    1
    24     5     9    1
    25     9    10   ar
    26    10    11   ar
    27    11    12   ar
    28    12    15    1
    29    15    16   ar
    30    16    17   ar
    31    17    18   ar
    32    18    19   ar
    33    19    20   ar
    34    20    21    1
    35    21    22    1
    36    22    23    1
    37    22    24    1
    38    22    25    1
    39    12    13   ar
    40    13    14   ar
    41     5     6   am
    42     6     7    2
    43     6     8    1
    44    33    34   ar
    45    34    35   ar
    46    42    43   ar
    47    43    44   ar
    48    44    36   ar
    49    44    40   ar
    50    35    30   ar
    51     8     2    1
    52    14     9   ar
    53    20    15   ar
    54    28    29    1
@<TRIPOS>MOLECULE
*****
 49 54 0 0 0
SMALL
GASTEIGER

@<TRIPOS>ATOM
      1 C         137.9445  139.4679  154.9695 C.3     1  UNL1        0.1318
      2 C         136.7092  140.1846  154.5108 C.3     1  UNL1        0.1741
      3 C         137.6391  140.8288  153.5257 C.3     1  UNL1        0.0473
      4 C         135.6683  141.0360  153.8463 C.3     1  UNL1        0.1446
      5 N         134.3534  140.7682  154.5165 N.am    1  UNL1       -0.2060
      6 C         134.5817  139.7513  155.5953 C.2     1  UNL1        0.4097
      7 O         133.5372  139.1930  156.5161 O.2     1  UNL1       -0.2258
      8 O         136.0376  139.3905  155.5919 O.3     1  UNL1       -0.4381
      9 C         133.0407  141.4054  154.1691 C.ar    1  UNL1        0.1400
     10 C         132.0175  141.6464  155.2392 C.ar    1  UNL1        0.0348
     11 C         130.7048  142.2835  154.8919 C.ar    1  UNL1        0.0045
     12 C         130.4151  142.6797  153.4745 C.ar    1  UNL1        0.0222
     13 C         131.4383  142.4387  152.4044 C.ar    1  UNL1        0.1004
     14 N         132.7510  141.8015  152.7517 N.ar    1  UNL1       -0.2287
     15 C         129.1024  143.3168  153.1272 C.ar    1  UNL1        0.0358
     16 C         129.0352  144.7874  152.8390 C.ar    1  UNL1        0.0031
     17 C         127.7225  145.4244  152.4917 C.ar    1  UNL1        0.0002
     18 C         126.4767  144.5911  152.4326 C.ar    1  UNL1        0.0031
     19 C         126.5437  143.1206  152.7208 C.ar    1  UNL1        0.0372
     20 C         127.8565  142.4834  153.0681 C.ar    1  UNL1        0.1468
     21 O         127.9235  141.0129  153.3563 O.3     1  UNL1       -0.4045
     22 C         127.8926  140.5243  154.7741 C.3     1  UNL1        0.5753
     23 F         127.8617  140.0357  156.1920 F       1  UNL1       -0.1328
     24 F         126.8035  141.5065  155.0888 F       1  UNL1       -0.1328
     25 F         128.9818  139.5422  154.4594 F       1  UNL1       -0.1328
     26 C         138.8729  140.5325  157.1500 C.2     1  UNL1        0.2459
     27 O         139.1821  141.7952  156.4019 O.2     1  UNL1       -0.2701
     28 N         138.2541  139.3688  156.4338 N.am    1  UNL1       -0.2976
     29 H         138.0511  138.5400  156.9249 H       1  UNL1        0.1499
     30 C         139.8017  140.2352  161.5431 C.ar    1  UNL1        0.0536
     31 C         140.9179  140.3199  160.5446 C.ar    1  UNL1        0.0048
     32 C         140.6082  140.4189  159.0802 C.ar    1  UNL1        0.0047
     33 C         139.1825  140.4334  158.6144 C.ar    1  UNL1        0.0534
     34 C         138.0663  140.3487  159.6129 C.ar    1  UNL1        0.0047
     35 C         138.3760  140.2497  161.0772 C.ar    1  UNL1        0.0048
     36 C         142.2325  139.3983  166.2042 C.ar    1  UNL1        0.0143
     37 C         141.8123  139.5623  167.6347 C.ar    1  UNL1        0.0091
     38 C         140.4358  140.0617  167.9596 C.ar    1  UNL1        0.0698
     39 C         139.4793  140.3973  166.8538 C.ar    1  UNL1        0.0326
     40 C         139.8995  140.2334  165.4232 C.ar    1  UNL1        0.1192
     41 N         139.1796  140.4820  164.1310 N.ar    1  UNL1       -0.2082
     42 C         140.1113  140.1361  163.0075 C.ar    1  UNL1        0.2296
     43 O         141.4070  139.6738  163.6054 O.2     1  UNL1       -0.4349
     44 C         141.2761  139.7339  165.0984 C.ar    1  UNL1        0.1607
     45 C         144.1958  137.7580  166.6566 C.3     1  UNL1        0.0048
     46 C         143.6091  138.8989  165.8793 C.3     1  UNL1        0.0254
     47 C         144.3990  139.5403  164.7772 C.3     1  UNL1        0.0048
     48 C         140.0156  140.2257  169.3902 C.1     1  UNL1        0.1005
     49 N         139.5954  140.3896  170.8208 N.1     1  UNL1       -0.1908
@<TRIPOS>BOND
     1    45    46    1
     2    46    47    1
     3    46    36    1
     4    36    37   ar
     5    37    38   ar
     6    38    48    1
     7    48    49    3
     8    38    39   ar
     9    39    40   ar
    10    40    41   ar
    11    41    42   ar
    12    42    30    1
    13    30    31   ar
    14    31    32   ar
    15    32    33   ar
    16    33    26    1
    17    26    27    2
    18    26    28   am
    19    28     1    1
    20     1     2    1
    21     2     3    1
    22     2     4    1
    23     4     5    1
    24     5     9    1
    25     9    10   ar
    26    10    11   ar
    27    11    12   ar
    28    12    15    1
    29    15    16   ar
    30    16    17   ar
    31    17    18   ar
    32    18    19   ar
    33    19    20   ar
    34    20    21    1
    35    21    22    1
    36    22    23    1
    37    22    24    1
    38    22    25    1
    39    12    13   ar
    40    13    14   ar
    41     5     6   am
    42     6     7    2
    43     6     8    1
    44    33    34   ar
    45    34    35   ar
    46    42    43   ar
    47    43    44   ar
    48    44    36   ar
    49    44    40   ar
    50    35    30   ar
    51     8     2    1
    52    14     9   ar
    53    20    15   ar
    54    28    29    1
@<TRIPOS>MOLECULE
*****
 49 54 0 0 0
SMALL
GASTEIGER

@<TRIPOS>ATOM
      1 C         142.6215  139.6811  155.8295 C.3     1  UNL1        0.1318
      2 C         142.9348  138.2970  155.3437 C.3     1  UNL1        0.1741
      3 C         144.2929  138.8711  155.0679 C.3     1  UNL1        0.0473
      4 C         143.5320  137.0329  154.8002 C.3     1  UNL1        0.1446
      5 N         142.4776  135.9669  154.8416 N.am    1  UNL1       -0.2060
      6 C         141.2287  136.5722  155.4107 C.2     1  UNL1        0.4097
      7 O         139.9258  135.8620  155.6309 O.2     1  UNL1       -0.2258
      8 O         141.5112  138.0123  155.7210 O.3     1  UNL1       -0.4381
      9 C         142.6429  134.5452  154.3928 C.ar    1  UNL1        0.1400
     10 C         143.2837  133.5408  155.3042 C.ar    1  UNL1        0.0348
     11 C         143.4491  132.1191  154.8555 C.ar    1  UNL1        0.0045
     12 C         142.9736  131.7018  153.4954 C.ar    1  UNL1        0.0222
     13 C         142.3328  132.7062  152.5841 C.ar    1  UNL1        0.1004
     14 N         142.1674  134.1279  153.0328 N.ar    1  UNL1       -0.2287
     15 C         143.1390  130.2800  153.0468 C.ar    1  UNL1        0.0358
     16 C         144.4860  129.7820  152.6137 C.ar    1  UNL1        0.0031
     17 C         144.6512  128.3603  152.1650 C.ar    1  UNL1        0.0002
     18 C         143.4696  127.4365  152.1494 C.ar    1  UNL1        0.0031
     19 C         142.1226  127.9345  152.5824 C.ar    1  UNL1        0.0372
     20 C         141.9572  129.3562  153.0311 C.ar    1  UNL1        0.1468
     21 O         140.6102  129.8542  153.4642 O.3     1  UNL1       -0.4045
     22 C         139.8978  129.1927  154.6065 C.3     1  UNL1        0.5753
     23 F         139.1853  128.5313  155.7488 F       1  UNL1       -0.1328
     24 F         140.7662  129.9355  155.5782 F       1  UNL1       -0.1328
     25 F         139.0294  128.4500  153.6348 F       1  UNL1       -0.1328
     26 C         143.4134  140.2279  158.2428 C.2     1  UNL1        0.2459
     27 O         144.8311  140.3075  157.7596 O.2     1  UNL1       -0.2701
     28 N         142.3085  139.9147  157.2778 N.am    1  UNL1       -0.2976
     29 H         141.3780  139.8625  157.5949 H       1  UNL1        0.1499
     30 C         142.4744  140.9287  162.5876 C.ar    1  UNL1        0.0536
     31 C         141.4806  140.2284  161.7090 C.ar    1  UNL1        0.0048
     32 C         141.7936  139.9949  160.2607 C.ar    1  UNL1        0.0047
     33 C         143.1004  140.4615  159.6911 C.ar    1  UNL1        0.0534
     34 C         144.0942  141.1618  160.5696 C.ar    1  UNL1        0.0047
     35 C         143.7812  141.3954  162.0179 C.ar    1  UNL1        0.0048
     36 C         142.0886  140.4349  167.8736 C.ar    1  UNL1        0.0143
     37 C         141.4777  141.2818  168.9504 C.ar    1  UNL1        0.0091
     38 C         140.7980  142.5709  168.5956 C.ar    1  UNL1        0.0698
     39 C         140.7291  143.0133  167.1639 C.ar    1  UNL1        0.0326
     40 C         141.3400  142.1664  166.0871 C.ar    1  UNL1        0.1192
     41 N         141.4276  142.3427  164.6001 N.ar    1  UNL1       -0.2082
     42 C         142.1614  141.1623  164.0359 C.ar    1  UNL1        0.2296
     43 O         142.5274  140.2566  165.1742 O.2     1  UNL1       -0.4349
     44 C         142.0197  140.8772  166.4420 C.ar    1  UNL1        0.1607
     45 C         143.4745  138.3536  167.1683 C.3     1  UNL1        0.0048
     46 C         142.7683  139.1457  168.2285 C.3     1  UNL1        0.0254
     47 C         142.7419  138.6486  169.6435 C.3     1  UNL1        0.0048
     48 C         140.1871  143.4179  169.6725 C.1     1  UNL1        0.1005
     49 N         139.5762  144.2648  170.7493 N.1     1  UNL1       -0.1908
@<TRIPOS>BOND
     1    45    46    1
     2    46    47    1
     3    46    36    1
     4    36    37   ar
     5    37    38   ar
     6    38    48    1
     7    48    49    3
     8    38    39   ar
     9    39    40   ar
    10    40    41   ar
    11    41    42   ar
    12    42    30    1
    13    30    31   ar
    14    31    32   ar
    15    32    33   ar
    16    33    26    1
    17    26    27    2
    18    26    28   am
    19    28     1    1
    20     1     2    1
    21     2     3    1
    22     2     4    1
    23     4     5    1
    24     5     9    1
    25     9    10   ar
    26    10    11   ar
    27    11    12   ar
    28    12    15    1
    29    15    16   ar
    30    16    17   ar
    31    17    18   ar
    32    18    19   ar
    33    19    20   ar
    34    20    21    1
    35    21    22    1
    36    22    23    1
    37    22    24    1
    38    22    25    1
    39    12    13   ar
    40    13    14   ar
    41     5     6   am
    42     6     7    2
    43     6     8    1
    44    33    34   ar
    45    34    35   ar
    46    42    43   ar
    47    43    44   ar
    48    44    36   ar
    49    44    40   ar
    50    35    30   ar
    51     8     2    1
    52    14     9   ar
    53    20    15   ar
    54    28    29    1
@<TRIPOS>MOLECULE
*****
 49 54 0 0 0
SMALL
GASTEIGER

@<TRIPOS>ATOM
      1 C         141.6661  140.0193  159.9186 C.3     1  UNL1        0.1318
      2 C         142.1414  138.8290  159.1394 C.3     1  UNL1        0.1741
      3 C         143.4487  139.1012  159.8228 C.3     1  UNL1        0.0473
      4 C         142.8900  137.6955  158.5031 C.3     1  UNL1        0.1446
      5 N         141.9461  136.9717  157.5894 N.am    1  UNL1       -0.2060
      6 C         140.6141  137.6578  157.6610 C.2     1  UNL1        0.4097
      7 O         139.3783  137.2649  156.9070 O.2     1  UNL1       -0.2258
      8 O         140.7347  138.8056  158.6190 O.3     1  UNL1       -0.4381
      9 C         142.2760  135.7723  156.7511 C.ar    1  UNL1        0.1400
     10 C         141.2865  135.2663  155.7438 C.ar    1  UNL1        0.0348
     11 C         141.6164  134.0669  154.9055 C.ar    1  UNL1        0.0045
     12 C         142.9357  133.3736  155.0745 C.ar    1  UNL1        0.0222
     13 C         143.9252  133.8797  156.0819 C.ar    1  UNL1        0.1004
     14 N         143.5954  135.0790  156.9202 N.ar    1  UNL1       -0.2287
     15 C         143.2656  132.1743  154.2363 C.ar    1  UNL1        0.0358
     16 C         142.8196  132.1136  152.8054 C.ar    1  UNL1        0.0031
     17 C         143.1495  130.9143  151.9672 C.ar    1  UNL1        0.0002
     18 C         143.9253  129.7755  152.5598 C.ar    1  UNL1        0.0031
     19 C         144.3713  129.8360  153.9906 C.ar    1  UNL1        0.0372
     20 C         144.0414  131.0354  154.8289 C.ar    1  UNL1        0.1468
     21 O         144.4874  131.0959  156.2598 O.3     1  UNL1       -0.4045
     22 C         143.8508  130.2020  157.2823 C.3     1  UNL1        0.5753
     23 F         143.2141  129.3081  158.3048 F       1  UNL1       -0.1328
     24 F         144.7350  129.0721  156.8450 F       1  UNL1       -0.1328
     25 F         142.9665  131.3320  157.7196 F       1  UNL1       -0.1328
     26 C         140.1690  141.9094  158.9510 C.2     1  UNL1        0.2459
     27 O         138.9431  141.1341  159.3332 O.2     1  UNL1       -0.2701
     28 N         141.5305  141.3521  159.2437 N.am    1  UNL1       -0.2976
     29 H         142.3351  141.8610  158.9929 H       1  UNL1        0.1499
     30 C         139.7621  145.9076  156.9263 C.ar    1  UNL1        0.0536
     31 C         139.2407  144.6710  156.2562 C.ar    1  UNL1        0.0048
     32 C         139.3764  143.3383  156.9311 C.ar    1  UNL1        0.0047
     33 C         140.0334  143.2422  158.2762 C.ar    1  UNL1        0.0534
     34 C         140.5547  144.4787  158.9463 C.ar    1  UNL1        0.0047
     35 C         140.4191  145.8114  158.2714 C.ar    1  UNL1        0.0048
     36 C         140.2607  150.0040  153.5640 C.ar    1  UNL1        0.0143
     37 C         139.6631  151.3788  153.5118 C.ar    1  UNL1        0.0091
     38 C         138.7028  151.8201  154.5761 C.ar    1  UNL1        0.0698
     39 C         138.3400  150.8866  155.6929 C.ar    1  UNL1        0.0326
     40 C         138.9376  149.5118  155.7451 C.ar    1  UNL1        0.1192
     41 N         138.7698  148.3807  156.7159 N.ar    1  UNL1       -0.2082
     42 C         139.6265  147.2403  156.2515 C.ar    1  UNL1        0.2296
     43 O         140.3237  147.6666  154.9936 O.2     1  UNL1       -0.4349
     44 C         139.8980  149.0705  154.6807 C.ar    1  UNL1        0.1607
     45 C         141.1585  148.1619  151.9670 C.3     1  UNL1        0.0048
     46 C         141.2211  149.5627  152.4996 C.3     1  UNL1        0.0254
     47 C         142.2441  150.5224  151.9678 C.3     1  UNL1        0.0048
     48 C         138.1051  153.1950  154.5239 C.1     1  UNL1        0.1005
     49 N         137.5074  154.5698  154.4716 N.1     1  UNL1       -0.1908
@<TRIPOS>BOND
     1    45    46    1
     2    46    47    1
     3    46    36    1
     4    36    37   ar
     5    37    38   ar
     6    38    48    1
     7    48    49    3
     8    38    39   ar
     9    39    40   ar
    10    40    41   ar
    11    41    42   ar
    12    42    30    1
    13    30    31   ar
    14    31    32   ar
    15    32    33   ar
    16    33    26    1
    17    26    27    2
    18    26    28   am
    19    28     1    1
    20     1     2    1
    21     2     3    1
    22     2     4    1
    23     4     5    1
    24     5     9    1
    25     9    10   ar
    26    10    11   ar
    27    11    12   ar
    28    12    15    1
    29    15    16   ar
    30    16    17   ar
    31    17    18   ar
    32    18    19   ar
    33    19    20   ar
    34    20    21    1
    35    21    22    1
    36    22    23    1
    37    22    24    1
    38    22    25    1
    39    12    13   ar
    40    13    14   ar
    41     5     6   am
    42     6     7    2
    43     6     8    1
    44    33    34   ar
    45    34    35   ar
    46    42    43   ar
    47    43    44   ar
    48    44    36   ar
    49    44    40   ar
    50    35    30   ar
    51     8     2    1
    52    14     9   ar
    53    20    15   ar
    54    28    29    1
@<TRIPOS>MOLECULE
*****
 49 54 0 0 0
SMALL
GASTEIGER

@<TRIPOS>ATOM
      1 C         153.2338  143.0153  153.9263 C.3     1  UNL1        0.1318
      2 C         153.6839  144.3167  154.5210 C.3     1  UNL1        0.1741
      3 C         154.1457  144.6141  153.1252 C.3     1  UNL1        0.0473
      4 C         154.2304  145.6804  154.8239 C.3     1  UNL1        0.1446
      5 N         154.0124  145.9536  156.2825 N.am    1  UNL1       -0.2060
      6 C         153.3310  144.7589  156.8811 C.2     1  UNL1        0.4097
      7 O         152.9241  144.6032  158.3165 O.2     1  UNL1       -0.2258
      8 O         153.1280  143.7472  155.7925 O.3     1  UNL1       -0.4381
      9 C         154.4064  147.2024  157.0142 C.ar    1  UNL1        0.1400
     10 C         155.5052  148.0711  156.4773 C.ar    1  UNL1        0.0348
     11 C         155.8993  149.3198  157.2089 C.ar    1  UNL1        0.0045
     12 C         155.1947  149.6999  158.4774 C.ar    1  UNL1        0.0222
     13 C         154.0960  148.8312  159.0142 C.ar    1  UNL1        0.1004
     14 N         153.7019  147.5825  158.2827 N.ar    1  UNL1       -0.2287
     15 C         155.5889  150.9487  159.2089 C.ar    1  UNL1        0.0358
     16 C         156.0011  150.8757  160.6493 C.ar    1  UNL1        0.0031
     17 C         156.3952  152.1245  161.3808 C.ar    1  UNL1        0.0002
     18 C         156.3772  153.4463  160.6720 C.ar    1  UNL1        0.0031
     19 C         155.9650  153.5193  159.2317 C.ar    1  UNL1        0.0372
     20 C         155.5708  152.2706  158.5001 C.ar    1  UNL1        0.1468
     21 O         155.1586  152.3436  157.0597 O.3     1  UNL1       -0.4045
     22 C         153.7453  152.6958  156.7010 C.3     1  UNL1        0.5753
     23 F         152.3321  153.0479  156.3422 F       1  UNL1       -0.1328
     24 F         153.4535  151.2494  156.4312 F       1  UNL1       -0.1328
     25 F         154.0372  154.1421  156.9708 F       1  UNL1       -0.1328
     26 C         150.6665  142.9607  153.5316 C.2     1  UNL1        0.2459
     27 O         150.8082  144.0054  152.4646 O.2     1  UNL1       -0.2701
     28 N         151.8792  142.4657  154.2625 N.am    1  UNL1       -0.2976
     29 H         151.7861  141.7800  154.9628 H       1  UNL1        0.1499
     30 C         146.6026  141.3119  154.5400 C.ar    1  UNL1        0.0536
     31 C         146.9686  141.5826  153.1108 C.ar    1  UNL1        0.0048
     32 C         148.3233  142.1322  152.7747 C.ar    1  UNL1        0.0047
     33 C         149.3119  142.4111  153.8678 C.ar    1  UNL1        0.0534
     34 C         148.9459  142.1404  155.2970 C.ar    1  UNL1        0.0047
     35 C         147.5912  141.5908  155.6331 C.ar    1  UNL1        0.0048
     36 C         142.4463  138.0698  155.2803 C.ar    1  UNL1        0.0143
     37 C         141.0453  138.2792  155.7736 C.ar    1  UNL1        0.0091
     38 C         140.5895  139.6498  156.1778 C.ar    1  UNL1        0.0698
     39 C         141.5347  140.8112  156.0889 C.ar    1  UNL1        0.0326
     40 C         142.9357  140.6018  155.5956 C.ar    1  UNL1        0.1192
     41 N         144.0831  141.5481  155.4008 N.ar    1  UNL1       -0.2082
     42 C         145.2480  140.7623  154.8762 C.ar    1  UNL1        0.2296
     43 O         144.8206  139.3303  154.7467 O.2     1  UNL1       -0.4349
     44 C         143.3915  139.2311  155.1914 C.ar    1  UNL1        0.1607
     45 C         142.2065  135.9758  153.7612 C.3     1  UNL1        0.0048
     46 C         142.9021  136.6991  154.8761 C.3     1  UNL1        0.0254
     47 C         144.0536  136.0516  155.5868 C.3     1  UNL1        0.0048
     48 C         139.1884  139.8591  156.6711 C.1     1  UNL1        0.1005
     49 N         137.7874  140.0685  157.1643 N.1     1  UNL1       -0.1908
@<TRIPOS>BOND
     1    45    46    1
     2    46    47    1
     3    46    36    1
     4    36    37   ar
     5    37    38   ar
     6    38    48    1
     7    48    49    3
     8    38    39   ar
     9    39    40   ar
    10    40    41   ar
    11    41    42   ar
    12    42    30    1
    13    30    31   ar
    14    31    32   ar
    15    32    33   ar
    16    33    26    1
    17    26    27    2
    18    26    28   am
    19    28     1    1
    20     1     2    1
    21     2     3    1
    22     2     4    1
    23     4     5    1
    24     5     9    1
    25     9    10   ar
    26    10    11   ar
    27    11    12   ar
    28    12    15    1
    29    15    16   ar
    30    16    17   ar
    31    17    18   ar
    32    18    19   ar
    33    19    20   ar
    34    20    21    1
    35    21    22    1
    36    22    23    1
    37    22    24    1
    38    22    25    1
    39    12    13   ar
    40    13    14   ar
    41     5     6   am
    42     6     7    2
    43     6     8    1
    44    33    34   ar
    45    34    35   ar
    46    42    43   ar
    47    43    44   ar
    48    44    36   ar
    49    44    40   ar
    50    35    30   ar
    51     8     2    1
    52    14     9   ar
    53    20    15   ar
    54    28    29    1
