@<TRIPOS>MOLECULE
*****
 30 32 0 0 0
SMALL
GASTEIGER

@<TRIPOS>ATOM
      1 N         138.9352  139.9277  164.3616 N.ar    1  UNL1       -0.2859
      2 C         139.9466  140.9794  164.0139 C.ar    1  UNL1        0.1318
      3 C         140.6682  141.7154  165.1037 C.ar    1  UNL1        0.0261
      4 C         140.3784  141.3998  166.5412 C.ar    1  UNL1        0.0097
      5 C         141.0999  142.1358  167.6309 C.ar    1  UNL1        0.0371
      6 C         140.8100  141.8201  169.0684 C.ar    1  UNL1        0.1387
      7 C         139.7986  140.7684  169.4161 C.ar    1  UNL1        0.0371
      8 C         139.0771  140.0324  168.3263 C.ar    1  UNL1        0.0078
      9 C         139.3669  140.3480  166.8889 C.ar    1  UNL1        0.0565
     10 C         138.6453  139.6120  165.7991 C.ar    1  UNL1        0.2613
     11 O         137.6339  138.5603  166.1468 O.2     1  UNL1       -0.2670
     12 C         141.6796  142.7671  164.7560 C.ar    1  UNL1        0.0043
     13 C         141.2271  144.1429  164.3655 C.ar    1  UNL1        0.0002
     14 C         142.2386  145.1946  164.0178 C.ar    1  UNL1        0.0023
     15 C         143.7025  144.8706  164.0605 C.ar    1  UNL1        0.0296
     16 C         144.1551  143.4947  164.4510 C.ar    1  UNL1        0.1401
     17 F         145.6190  143.1707  164.4937 F       1  UNL1       -0.2042
     18 C         143.1436  142.4430  164.7987 C.ar    1  UNL1        0.0297
     19 C         140.2365  141.2951  162.5764 C.1     1  UNL1        0.1180
     20 N         140.5264  141.6107  161.1390 N.1     1  UNL1       -0.1893
     21 O         141.5316  142.5562  170.1582 O.3     1  UNL1       -0.4714
     22 C         143.0229  142.7069  170.1012 C.3     1  UNL1        0.2525
     23 C         138.2136  139.1916  163.2718 C.3     1  UNL1        0.1270
     24 C         138.7109  137.8522  162.8149 C.3     1  UNL1        0.0971
     25 N         140.1611  137.6647  162.4808 N.3     1  UNL1       -0.2677
     26 C         140.6641  138.0011  161.1083 C.3     1  UNL1        0.0897
     27 C         141.1083  137.1406  163.5191 C.3     1  UNL1        0.1046
     28 C         142.0950  138.0649  164.1690 C.3     1  UNL1        0.1595
     29 C         143.1967  138.8930  166.3712 C.3     1  UNL1        0.1742
     30 O         142.0096  138.3379  165.6414 O.3     1  UNL1       -0.3496
@<TRIPOS>BOND
     1    29    30    1
     2    30    28    1
     3    28    27    1
     4    27    25    1
     5    25    26    1
     6    25    24    1
     7    24    23    1
     8    23     1    1
     9     1     2   ar
    10     2    19    1
    11    19    20    3
    12     2     3   ar
    13     3    12    1
    14    12    13   ar
    15    13    14   ar
    16    14    15   ar
    17    15    16   ar
    18    16    17    1
    19    16    18   ar
    20     3     4   ar
    21     4     5   ar
    22     5     6   ar
    23     6    21    1
    24    21    22    1
    25     6     7   ar
    26     7     8   ar
    27     8     9   ar
    28     9    10   ar
    29    10    11    2
    30    10     1   ar
    31    18    12   ar
    32     9     4   ar
@<TRIPOS>MOLECULE
*****
 30 32 0 0 0
SMALL
GASTEIGER

@<TRIPOS>ATOM
      1 N         139.8105  139.0752  164.3584 N.ar    1  UNL1       -0.2859
      2 C         140.7552  140.2116  164.1015 C.ar    1  UNL1        0.1318
      3 C         141.1101  141.1572  165.2104 C.ar    1  UNL1        0.0261
      4 C         140.5204  140.9664  166.5764 C.ar    1  UNL1        0.0097
      5 C         140.8754  141.9119  167.6854 C.ar    1  UNL1        0.0371
      6 C         140.2857  141.7211  169.0513 C.ar    1  UNL1        0.1387
      7 C         139.3410  140.5846  169.3082 C.ar    1  UNL1        0.0371
      8 C         138.9860  139.6390  168.1993 C.ar    1  UNL1        0.0078
      9 C         139.5757  139.8299  166.8334 C.ar    1  UNL1        0.0565
     10 C         139.2208  138.8843  165.7243 C.ar    1  UNL1        0.2613
     11 O         138.2761  137.7478  165.9813 O.2     1  UNL1       -0.2670
     12 C         142.0548  142.2937  164.9535 C.ar    1  UNL1        0.0043
     13 C         143.5121  142.1452  165.2761 C.ar    1  UNL1        0.0002
     14 C         144.4568  143.2817  165.0192 C.ar    1  UNL1        0.0023
     15 C         143.9442  144.5666  164.4395 C.ar    1  UNL1        0.0296
     16 C         142.4868  144.7152  164.1168 C.ar    1  UNL1        0.1401
     17 F         141.9742  146.0001  163.5372 F       1  UNL1       -0.2042
     18 C         141.5421  143.5787  164.3738 C.ar    1  UNL1        0.0297
     19 C         141.3449  140.4025  162.7355 C.1     1  UNL1        0.1180
     20 N         141.9346  140.5933  161.3695 N.1     1  UNL1       -0.1893
     21 O         140.6406  142.6667  170.1603 O.3     1  UNL1       -0.4714
     22 C         140.4330  144.1417  169.9835 C.3     1  UNL1        0.2525
     23 C         139.4555  138.1296  163.2494 C.3     1  UNL1        0.1270
     24 C         138.2441  138.3871  162.4031 C.3     1  UNL1        0.0971
     25 N         138.2907  139.4276  161.3237 N.3     1  UNL1       -0.2677
     26 C         138.8935  139.0983  159.9902 C.3     1  UNL1        0.0897
     27 C         137.7344  140.7972  161.5777 C.3     1  UNL1        0.1046
     28 C         137.3636  141.2095  162.9715 C.3     1  UNL1        0.1595
     29 C         137.8086  143.7690  162.9510 C.3     1  UNL1        0.1742
     30 O         137.9938  142.4234  163.5873 O.3     1  UNL1       -0.3496
@<TRIPOS>BOND
     1    29    30    1
     2    30    28    1
     3    28    27    1
     4    27    25    1
     5    25    26    1
     6    25    24    1
     7    24    23    1
     8    23     1    1
     9     1     2   ar
    10     2    19    1
    11    19    20    3
    12     2     3   ar
    13     3    12    1
    14    12    13   ar
    15    13    14   ar
    16    14    15   ar
    17    15    16   ar
    18    16    17    1
    19    16    18   ar
    20     3     4   ar
    21     4     5   ar
    22     5     6   ar
    23     6    21    1
    24    21    22    1
    25     6     7   ar
    26     7     8   ar
    27     8     9   ar
    28     9    10   ar
    29    10    11    2
    30    10     1   ar
    31    18    12   ar
    32     9     4   ar
@<TRIPOS>MOLECULE
*****
 30 32 0 0 0
SMALL
GASTEIGER

@<TRIPOS>ATOM
      1 N         141.3699  144.3187  163.4509 N.ar    1  UNL1       -0.2859
      2 C         140.7486  143.7292  164.6823 C.ar    1  UNL1        0.1318
      3 C         141.3387  142.4986  165.3045 C.ar    1  UNL1        0.0261
      4 C         142.5502  141.8573  164.6953 C.ar    1  UNL1        0.0097
      5 C         143.1403  140.6266  165.3175 C.ar    1  UNL1        0.0371
      6 C         144.3517  139.9854  164.7082 C.ar    1  UNL1        0.1387
      7 C         144.9730  140.5749  163.4767 C.ar    1  UNL1        0.0371
      8 C         144.3829  141.8055  162.8545 C.ar    1  UNL1        0.0078
      9 C         143.1715  142.4468  163.4638 C.ar    1  UNL1        0.0565
     10 C         142.5813  143.6775  162.8416 C.ar    1  UNL1        0.2613
     11 O         143.2027  144.2670  161.6101 O.2     1  UNL1       -0.2670
     12 C         140.7174  141.9091  166.5360 C.ar    1  UNL1        0.0043
     13 C         140.9841  142.5234  167.8781 C.ar    1  UNL1        0.0002
     14 C         140.3628  141.9339  169.1096 C.ar    1  UNL1        0.0023
     15 C         139.4747  140.7302  168.9989 C.ar    1  UNL1        0.0296
     16 C         139.2079  140.1158  167.6567 C.ar    1  UNL1        0.1401
     17 F         138.3199  138.9121  167.5460 F       1  UNL1       -0.2042
     18 C         139.8293  140.7053  166.4252 C.ar    1  UNL1        0.0297
     19 C         139.5371  144.3705  165.2916 C.1     1  UNL1        0.1180
     20 N         138.3257  145.0118  165.9008 N.1     1  UNL1       -0.1893
     21 O         144.9419  138.7547  165.3304 O.3     1  UNL1       -0.4714
     22 C         144.1743  138.0010  166.3758 C.3     1  UNL1        0.2525
     23 C         140.7797  145.5494  162.8286 C.3     1  UNL1        0.1270
     24 C         139.5913  145.4346  161.9207 C.3     1  UNL1        0.0971
     25 N         139.5450  144.3568  160.8786 N.3     1  UNL1       -0.2677
     26 C         140.2704  144.5390  159.5784 C.3     1  UNL1        0.0897
     27 C         138.7732  143.0968  161.1366 C.3     1  UNL1        0.1046
     28 C         137.8678  143.0026  162.3289 C.3     1  UNL1        0.1595
     29 C         137.7285  140.6093  163.3300 C.3     1  UNL1        0.1742
     30 O         137.0921  141.7445  162.5841 O.3     1  UNL1       -0.3496
@<TRIPOS>BOND
     1    29    30    1
     2    30    28    1
     3    28    27    1
     4    27    25    1
     5    25    26    1
     6    25    24    1
     7    24    23    1
     8    23     1    1
     9     1     2   ar
    10     2    19    1
    11    19    20    3
    12     2     3   ar
    13     3    12    1
    14    12    13   ar
    15    13    14   ar
    16    14    15   ar
    17    15    16   ar
    18    16    17    1
    19    16    18   ar
    20     3     4   ar
    21     4     5   ar
    22     5     6   ar
    23     6    21    1
    24    21    22    1
    25     6     7   ar
    26     7     8   ar
    27     8     9   ar
    28     9    10   ar
    29    10    11    2
    30    10     1   ar
    31    18    12   ar
    32     9     4   ar
@<TRIPOS>MOLECULE
*****
 30 32 0 0 0
SMALL
GASTEIGER

@<TRIPOS>ATOM
      1 N         142.5901  141.9268  163.5831 N.ar    1  UNL1       -0.2859
      2 C         142.6987  142.2021  165.0536 C.ar    1  UNL1        0.1318
      3 C         141.6910  141.6225  166.0015 C.ar    1  UNL1        0.0261
      4 C         140.5746  140.7677  165.4789 C.ar    1  UNL1        0.0097
      5 C         139.5669  140.1881  166.4269 C.ar    1  UNL1        0.0371
      6 C         138.4506  139.3333  165.9043 C.ar    1  UNL1        0.1387
      7 C         138.3421  139.0580  164.4337 C.ar    1  UNL1        0.0371
      8 C         139.3498  139.6376  163.4858 C.ar    1  UNL1        0.0078
      9 C         140.4660  140.4924  164.0084 C.ar    1  UNL1        0.0565
     10 C         141.4738  141.0720  163.0605 C.ar    1  UNL1        0.2613
     11 O         141.3653  140.7967  161.5899 O.2     1  UNL1       -0.2670
     12 C         141.7996  141.8978  167.4720 C.ar    1  UNL1        0.0043
     13 C         142.7676  141.1180  168.3116 C.ar    1  UNL1        0.0002
     14 C         142.8762  141.3933  169.7821 C.ar    1  UNL1        0.0023
     15 C         142.0167  142.4483  170.4131 C.ar    1  UNL1        0.0296
     16 C         141.0487  143.2281  169.5736 C.ar    1  UNL1        0.1401
     17 F         140.1892  144.2832  170.2046 F       1  UNL1       -0.2042
     18 C         140.9401  142.9529  168.1030 C.ar    1  UNL1        0.0297
     19 C         143.8151  143.0569  165.5762 C.1     1  UNL1        0.1180
     20 N         144.9314  143.9117  166.0987 N.1     1  UNL1       -0.1893
     21 O         137.4429  138.7537  166.8522 O.3     1  UNL1       -0.4714
     22 C         137.3303  137.2663  167.0098 C.3     1  UNL1        0.2525
     23 C         143.5979  142.5064  162.6351 C.3     1  UNL1        0.1270
     24 C         143.4287  143.9066  162.1245 C.3     1  UNL1        0.0971
     25 N         142.0821  144.3787  161.6622 N.3     1  UNL1       -0.2677
     26 C         141.6336  144.1063  160.2569 C.3     1  UNL1        0.0897
     27 C         141.1839  145.1232  162.6050 C.3     1  UNL1        0.1046
     28 C         139.9420  145.7883  162.0900 C.3     1  UNL1        0.1595
     29 C         138.5131  143.6437  162.4195 C.3     1  UNL1        0.1742
     30 O         138.6059  145.1346  162.2833 O.3     1  UNL1       -0.3496
@<TRIPOS>BOND
     1    29    30    1
     2    30    28    1
     3    28    27    1
     4    27    25    1
     5    25    26    1
     6    25    24    1
     7    24    23    1
     8    23     1    1
     9     1     2   ar
    10     2    19    1
    11    19    20    3
    12     2     3   ar
    13     3    12    1
    14    12    13   ar
    15    13    14   ar
    16    14    15   ar
    17    15    16   ar
    18    16    17    1
    19    16    18   ar
    20     3     4   ar
    21     4     5   ar
    22     5     6   ar
    23     6    21    1
    24    21    22    1
    25     6     7   ar
    26     7     8   ar
    27     8     9   ar
    28     9    10   ar
    29    10    11    2
    30    10     1   ar
    31    18    12   ar
    32     9     4   ar
@<TRIPOS>MOLECULE
*****
 30 32 0 0 0
SMALL
GASTEIGER

@<TRIPOS>ATOM
      1 N         139.1531  139.6223  164.5117 N.ar    1  UNL1       -0.2859
      2 C         140.0119  140.7739  164.0800 C.ar    1  UNL1        0.1318
      3 C         140.6070  141.6917  165.1064 C.ar    1  UNL1        0.0261
      4 C         140.3434  141.4579  166.5645 C.ar    1  UNL1        0.0097
      5 C         140.9385  142.3757  167.5908 C.ar    1  UNL1        0.0371
      6 C         140.6748  142.1419  169.0488 C.ar    1  UNL1        0.1387
      7 C         139.8161  140.9903  169.4804 C.ar    1  UNL1        0.0371
      8 C         139.2210  140.0725  168.4541 C.ar    1  UNL1        0.0078
      9 C         139.4846  140.3063  166.9961 C.ar    1  UNL1        0.0565
     10 C         138.8895  139.3885  165.9697 C.ar    1  UNL1        0.2613
     11 O         138.0307  138.2369  166.4013 O.2     1  UNL1       -0.2670
     12 C         141.4658  142.8433  164.6747 C.ar    1  UNL1        0.0043
     13 C         142.9514  142.7872  164.8743 C.ar    1  UNL1        0.0002
     14 C         143.8101  143.9388  164.4426 C.ar    1  UNL1        0.0023
     15 C         143.1833  145.1465  163.8114 C.ar    1  UNL1        0.0296
     16 C         141.6977  145.2026  163.6118 C.ar    1  UNL1        0.1401
     17 F         141.0709  146.4103  162.9806 F       1  UNL1       -0.2042
     18 C         140.8389  144.0510  164.0435 C.ar    1  UNL1        0.0297
     19 C         140.2755  141.0076  162.6219 C.1     1  UNL1        0.1180
     20 N         140.5392  141.2413  161.1640 N.1     1  UNL1       -0.1893
     21 O         141.2700  143.0598  170.0752 O.3     1  UNL1       -0.4714
     22 C         142.7311  142.9717  170.4028 C.3     1  UNL1        0.2525
     23 C         138.5580  138.7044  163.4853 C.3     1  UNL1        0.1270
     24 C         139.4028  137.6386  162.8525 C.3     1  UNL1        0.0971
     25 N         140.8418  137.4887  163.2483 N.3     1  UNL1       -0.2677
     26 C         141.1948  136.9802  164.6146 C.3     1  UNL1        0.0897
     27 C         141.9278  137.8472  162.2778 C.3     1  UNL1        0.1046
     28 C         143.1419  138.5899  162.7516 C.3     1  UNL1        0.1595
     29 C         143.8309  139.2772  160.3427 C.3     1  UNL1        0.1742
     30 O         144.1990  139.0025  161.7706 O.3     1  UNL1       -0.3496
@<TRIPOS>BOND
     1    29    30    1
     2    30    28    1
     3    28    27    1
     4    27    25    1
     5    25    26    1
     6    25    24    1
     7    24    23    1
     8    23     1    1
     9     1     2   ar
    10     2    19    1
    11    19    20    3
    12     2     3   ar
    13     3    12    1
    14    12    13   ar
    15    13    14   ar
    16    14    15   ar
    17    15    16   ar
    18    16    17    1
    19    16    18   ar
    20     3     4   ar
    21     4     5   ar
    22     5     6   ar
    23     6    21    1
    24    21    22    1
    25     6     7   ar
    26     7     8   ar
    27     8     9   ar
    28     9    10   ar
    29    10    11    2
    30    10     1   ar
    31    18    12   ar
    32     9     4   ar
@<TRIPOS>MOLECULE
*****
 30 32 0 0 0
SMALL
GASTEIGER

@<TRIPOS>ATOM
      1 N         142.0345  141.6617  163.5992 N.ar    1  UNL1       -0.2859
      2 C         142.3282  142.1569  164.9843 C.ar    1  UNL1        0.1318
      3 C         141.5255  141.6530  166.1469 C.ar    1  UNL1        0.0261
      4 C         140.4290  140.6538  165.9244 C.ar    1  UNL1        0.0097
      5 C         139.6262  140.1499  167.0870 C.ar    1  UNL1        0.0371
      6 C         138.5298  139.1508  166.8645 C.ar    1  UNL1        0.1387
      7 C         138.2361  138.6556  165.4794 C.ar    1  UNL1        0.0371
      8 C         139.0388  139.1595  164.3168 C.ar    1  UNL1        0.0078
      9 C         140.1353  140.1586  164.5393 C.ar    1  UNL1        0.0565
     10 C         140.9381  140.6626  163.3767 C.ar    1  UNL1        0.2613
     11 O         140.6444  140.1674  161.9916 O.2     1  UNL1       -0.2670
     12 C         141.8192  142.1482  167.5320 C.ar    1  UNL1        0.0043
     13 C         143.1018  141.7657  168.2090 C.ar    1  UNL1        0.0002
     14 C         143.3955  142.2609  169.5941 C.ar    1  UNL1        0.0023
     15 C         142.4066  143.1386  170.3022 C.ar    1  UNL1        0.0296
     16 C         141.1238  143.5213  169.6252 C.ar    1  UNL1        0.1401
     17 F         140.1349  144.3990  170.3333 F       1  UNL1       -0.2042
     18 C         140.8301  143.0260  168.2401 C.ar    1  UNL1        0.0297
     19 C         143.4247  143.1561  165.2068 C.1     1  UNL1        0.1180
     20 N         144.5212  144.1551  165.4293 N.1     1  UNL1       -0.1893
     21 O         137.7270  138.6469  168.0271 O.3     1  UNL1       -0.4714
     22 C         136.6834  137.5903  167.8161 C.3     1  UNL1        0.2525
     23 C         142.8373  142.1656  162.4366 C.3     1  UNL1        0.1270
     24 C         144.0918  141.4530  162.0263 C.3     1  UNL1        0.0971
     25 N         144.0532  139.9865  161.7136 N.3     1  UNL1       -0.2677
     26 C         143.8725  139.5261  160.2975 C.3     1  UNL1        0.0897
     27 C         144.1953  138.9804  162.8170 C.3     1  UNL1        0.1046
     28 C         144.8734  139.3638  164.0989 C.3     1  UNL1        0.1595
     29 C         143.2733  138.2695  165.8286 C.3     1  UNL1        0.1742
     30 O         144.0819  139.4468  165.3703 O.3     1  UNL1       -0.3496
@<TRIPOS>BOND
     1    29    30    1
     2    30    28    1
     3    28    27    1
     4    27    25    1
     5    25    26    1
     6    25    24    1
     7    24    23    1
     8    23     1    1
     9     1     2   ar
    10     2    19    1
    11    19    20    3
    12     2     3   ar
    13     3    12    1
    14    12    13   ar
    15    13    14   ar
    16    14    15   ar
    17    15    16   ar
    18    16    17    1
    19    16    18   ar
    20     3     4   ar
    21     4     5   ar
    22     5     6   ar
    23     6    21    1
    24    21    22    1
    25     6     7   ar
    26     7     8   ar
    27     8     9   ar
    28     9    10   ar
    29    10    11    2
    30    10     1   ar
    31    18    12   ar
    32     9     4   ar
@<TRIPOS>MOLECULE
*****
 30 32 0 0 0
SMALL
GASTEIGER

@<TRIPOS>ATOM
      1 N         141.2089  144.7159  160.8110 N.ar    1  UNL1       -0.2859
      2 C         142.1894  143.6500  161.2016 C.ar    1  UNL1        0.1318
      3 C         142.1526  143.0670  162.5831 C.ar    1  UNL1        0.0261
      4 C         141.1353  143.5498  163.5741 C.ar    1  UNL1        0.0097
      5 C         141.0984  142.9668  164.9556 C.ar    1  UNL1        0.0371
      6 C         140.0812  143.4496  165.9466 C.ar    1  UNL1        0.1387
      7 C         139.1007  144.5155  165.5559 C.ar    1  UNL1        0.0371
      8 C         139.1375  145.0986  164.1744 C.ar    1  UNL1        0.0078
      9 C         140.1548  144.6157  163.1835 C.ar    1  UNL1        0.0565
     10 C         140.1917  145.1988  161.8019 C.ar    1  UNL1        0.2613
     11 O         139.2112  146.2647  161.4113 O.2     1  UNL1       -0.2670
     12 C         143.1330  142.0011  162.9737 C.ar    1  UNL1        0.0043
     13 C         144.4589  142.3812  163.5633 C.ar    1  UNL1        0.0002
     14 C         145.4393  141.3153  163.9539 C.ar    1  UNL1        0.0023
     15 C         145.0939  139.8693  163.7549 C.ar    1  UNL1        0.0296
     16 C         143.7681  139.4891  163.1653 C.ar    1  UNL1        0.1401
     17 F         143.4227  138.0430  162.9664 F       1  UNL1       -0.2042
     18 C         142.7876  140.5550  162.7747 C.ar    1  UNL1        0.0297
     19 C         143.2067  143.1672  160.2106 C.1     1  UNL1        0.1180
     20 N         144.2239  142.6843  159.2196 N.1     1  UNL1       -0.1893
     21 O         140.0443  142.8666  167.3282 O.3     1  UNL1       -0.4714
     22 C         141.2412  142.1416  167.8684 C.3     1  UNL1        0.2525
     23 C         141.2458  145.2990  159.4294 C.3     1  UNL1        0.1270
     24 C         140.1981  144.9172  158.4261 C.3     1  UNL1        0.0971
     25 N         139.9490  143.4711  158.1151 N.3     1  UNL1       -0.2677
     26 C         140.9336  142.7020  157.2850 C.3     1  UNL1        0.0897
     27 C         138.7153  142.7941  158.6343 C.3     1  UNL1        0.1046
     28 C         138.7083  142.2020  160.0126 C.3     1  UNL1        0.1595
     29 C         137.6939  142.1268  162.4031 C.3     1  UNL1        0.1742
     30 O         137.8942  142.8400  161.0988 O.3     1  UNL1       -0.3496
@<TRIPOS>BOND
     1    29    30    1
     2    30    28    1
     3    28    27    1
     4    27    25    1
     5    25    26    1
     6    25    24    1
     7    24    23    1
     8    23     1    1
     9     1     2   ar
    10     2    19    1
    11    19    20    3
    12     2     3   ar
    13     3    12    1
    14    12    13   ar
    15    13    14   ar
    16    14    15   ar
    17    15    16   ar
    18    16    17    1
    19    16    18   ar
    20     3     4   ar
    21     4     5   ar
    22     5     6   ar
    23     6    21    1
    24    21    22    1
    25     6     7   ar
    26     7     8   ar
    27     8     9   ar
    28     9    10   ar
    29    10    11    2
    30    10     1   ar
    31    18    12   ar
    32     9     4   ar
@<TRIPOS>MOLECULE
*****
 30 32 0 0 0
SMALL
GASTEIGER

@<TRIPOS>ATOM
      1 N         143.8158  141.2418  163.3149 N.ar    1  UNL1       -0.2859
      2 C         143.4650  141.6997  164.6996 C.ar    1  UNL1        0.1318
      3 C         142.3457  141.0379  165.4473 C.ar    1  UNL1        0.0261
      4 C         141.5771  139.9182  164.8104 C.ar    1  UNL1        0.0097
      5 C         140.4578  139.2564  165.5582 C.ar    1  UNL1        0.0371
      6 C         139.6893  138.1368  164.9213 C.ar    1  UNL1        0.1387
      7 C         140.0401  137.6789  163.5366 C.ar    1  UNL1        0.0371
      8 C         141.1594  138.3406  162.7889 C.ar    1  UNL1        0.0078
      9 C         141.9279  139.4603  163.4258 C.ar    1  UNL1        0.0565
     10 C         143.0473  140.1221  162.6780 C.ar    1  UNL1        0.2613
     11 O         143.3981  139.6642  161.2934 O.2     1  UNL1       -0.2670
     12 C         141.9949  141.4959  166.8319 C.ar    1  UNL1        0.0043
     13 C         140.9277  142.5308  167.0318 C.ar    1  UNL1        0.0002
     14 C         140.5769  142.9887  168.4164 C.ar    1  UNL1        0.0023
     15 C         141.2933  142.4117  169.6012 C.ar    1  UNL1        0.0296
     16 C         142.3606  141.3767  169.4014 C.ar    1  UNL1        0.1401
     17 F         143.0769  140.7997  170.5862 F       1  UNL1       -0.2042
     18 C         142.7114  140.9188  168.0168 C.ar    1  UNL1        0.0297
     19 C         144.2336  142.8194  165.3364 C.1     1  UNL1        0.1180
     20 N         145.0021  143.9391  165.9733 N.1     1  UNL1       -0.1893
     21 O         138.5700  137.4749  165.6690 O.3     1  UNL1       -0.4714
     22 C         137.8095  138.2394  166.7118 C.3     1  UNL1        0.2525
     23 C         144.9352  141.9036  162.5672 C.3     1  UNL1        0.1270
     24 C         144.6309  142.9184  161.5053 C.3     1  UNL1        0.0971
     25 N         143.2236  143.3987  161.3081 N.3     1  UNL1       -0.2677
     26 C         142.4244  142.9172  160.1337 C.3     1  UNL1        0.0897
     27 C         142.6156  144.3605  162.2854 C.3     1  UNL1        0.1046
     28 C         141.2505  144.0956  162.8480 C.3     1  UNL1        0.1595
     29 C         139.4193  144.8013  164.5505 C.3     1  UNL1        0.1742
     30 O         140.8669  144.6611  164.1833 O.3     1  UNL1       -0.3496
@<TRIPOS>BOND
     1    29    30    1
     2    30    28    1
     3    28    27    1
     4    27    25    1
     5    25    26    1
     6    25    24    1
     7    24    23    1
     8    23     1    1
     9     1     2   ar
    10     2    19    1
    11    19    20    3
    12     2     3   ar
    13     3    12    1
    14    12    13   ar
    15    13    14   ar
    16    14    15   ar
    17    15    16   ar
    18    16    17    1
    19    16    18   ar
    20     3     4   ar
    21     4     5   ar
    22     5     6   ar
    23     6    21    1
    24    21    22    1
    25     6     7   ar
    26     7     8   ar
    27     8     9   ar
    28     9    10   ar
    29    10    11    2
    30    10     1   ar
    31    18    12   ar
    32     9     4   ar
@<TRIPOS>MOLECULE
*****
 30 32 0 0 0
SMALL
GASTEIGER

@<TRIPOS>ATOM
      1 N         143.3060  139.8854  164.6755 N.ar    1  UNL1       -0.2859
      2 C         142.1768  140.8212  164.3604 C.ar    1  UNL1        0.1318
      3 C         141.1865  141.1872  165.4260 C.ar    1  UNL1        0.0261
      4 C         141.3255  140.6175  166.8067 C.ar    1  UNL1        0.0097
      5 C         140.3353  140.9836  167.8722 C.ar    1  UNL1        0.0371
      6 C         140.4743  140.4139  169.2528 C.ar    1  UNL1        0.1387
      7 C         141.6035  139.4782  169.5679 C.ar    1  UNL1        0.0371
      8 C         142.5937  139.1121  168.5023 C.ar    1  UNL1        0.0078
      9 C         142.4547  139.6818  167.1217 C.ar    1  UNL1        0.0565
     10 C         143.4450  139.3158  166.0561 C.ar    1  UNL1        0.2613
     11 O         144.5742  138.3800  166.3712 O.2     1  UNL1       -0.2670
     12 C         140.0573  142.1229  165.1109 C.ar    1  UNL1        0.0043
     13 C         140.1483  143.5675  165.5043 C.ar    1  UNL1        0.0002
     14 C         139.0191  144.5033  165.1892 C.ar    1  UNL1        0.0023
     15 C         137.7989  143.9944  164.4807 C.ar    1  UNL1        0.0296
     16 C         137.7078  142.5497  164.0873 C.ar    1  UNL1        0.1401
     17 F         136.4875  142.0409  163.3788 F       1  UNL1       -0.2042
     18 C         138.8370  141.6140  164.4024 C.ar    1  UNL1        0.0297
     19 C         142.0378  141.3908  162.9797 C.1     1  UNL1        0.1180
     20 N         141.8988  141.9604  161.5991 N.1     1  UNL1       -0.1893
     21 O         139.4840  140.7800  170.3184 O.3     1  UNL1       -0.4714
     22 C         138.1425  140.1099  170.3577 C.3     1  UNL1        0.2525
     23 C         144.2962  139.5194  163.6099 C.3     1  UNL1        0.1270
     24 C         144.0525  138.3229  162.7386 C.3     1  UNL1        0.0971
     25 N         143.1275  138.4276  161.5625 N.3     1  UNL1       -0.2677
     26 C         143.6106  139.0382  160.2804 C.3     1  UNL1        0.0897
     27 C         141.7194  137.9217  161.6684 C.3     1  UNL1        0.1046
     28 C         141.1764  137.4875  162.9977 C.3     1  UNL1        0.1595
     29 C         139.5316  137.8726  164.9715 C.3     1  UNL1        0.1742
     30 O         139.9473  138.1416  163.5556 O.3     1  UNL1       -0.3496
@<TRIPOS>BOND
     1    29    30    1
     2    30    28    1
     3    28    27    1
     4    27    25    1
     5    25    26    1
     6    25    24    1
     7    24    23    1
     8    23     1    1
     9     1     2   ar
    10     2    19    1
    11    19    20    3
    12     2     3   ar
    13     3    12    1
    14    12    13   ar
    15    13    14   ar
    16    14    15   ar
    17    15    16   ar
    18    16    17    1
    19    16    18   ar
    20     3     4   ar
    21     4     5   ar
    22     5     6   ar
    23     6    21    1
    24    21    22    1
    25     6     7   ar
    26     7     8   ar
    27     8     9   ar
    28     9    10   ar
    29    10    11    2
    30    10     1   ar
    31    18    12   ar
    32     9     4   ar
