@<TRIPOS>MOLECULE
*****
 32 34 0 0 0
SMALL
GASTEIGER

@<TRIPOS>ATOM
      1 N         141.2958  137.7896  162.0906 N.3     1  UNL1       -0.2935
      2 H         141.4741  137.0400  161.4221 H       1  UNL1        0.1236
      3 C         142.4707  138.7196  162.0218 C.3     1  UNL1        0.0737
      4 C         142.2565  140.1802  161.7555 C.3     1  UNL1        0.0468
      5 C         142.8471  141.8448  163.7618 C.2     1  UNL1        0.1661
      6 N         142.0470  142.6438  164.7475 N.2     1  UNL1       -0.0396
      7 C         140.5932  142.3942  164.4752 C.2     1  UNL1        0.3712
      8 N         139.3464  142.9118  165.1289 N.2     1  UNL1       -0.0311
      9 C         138.0011  142.4761  164.6287 C.2     1  UNL1        0.2318
     10 C         137.9026  141.5229  163.4748 C.2     1  UNL1        0.0293
     11 C         139.1494  141.0053  162.8211 C.3     1  UNL1        0.0640
     12 C         140.4947  141.4410  163.3213 C.2     1  UNL1        0.0699
     13 C         141.8877  141.1014  162.8804 C.2     1  UNL1        0.0216
     14 C         144.3248  142.9650  162.7315 C.3     1  UNL1        0.0082
     15 C         144.3437  141.7976  163.6732 C.3     1  UNL1        0.0589
     16 C         144.3626  140.6301  164.6148 C.3     1  UNL1        0.0082
     17 C         145.8404  141.7503  163.5845 C.3     1  UNL1        0.0082
     18 C         140.9336  137.1338  163.3900 C.3     1  UNL1        0.0956
     19 C         140.5948  137.9743  164.5854 C.ar    1  UNL1       -0.0064
     20 C         139.1602  138.2066  164.9567 C.ar    1  UNL1       -0.0029
     21 C         138.8216  139.0471  166.1520 C.ar    1  UNL1       -0.0003
     22 C         139.9175  139.6553  166.9761 C.ar    1  UNL1        0.0001
     23 C         141.3521  139.4230  166.6048 C.ar    1  UNL1       -0.0003
     24 C         141.6908  138.5825  165.4095 C.ar    1  UNL1       -0.0029
     25 C         139.5787  140.4958  168.1714 C.2     1  UNL1        0.0047
     26 C         140.4932  140.5120  169.3603 C.2     1  UNL1        0.0598
     27 C         140.1546  141.3525  170.5557 C.2     1  UNL1        0.2679
     28 O         140.6966  140.9885  171.9061 O.2     1  UNL1       -0.2681
     29 N         139.2740  142.5568  170.4006 N.am    1  UNL1       -0.1934
     30 O         138.9354  143.3973  171.5961 O.3     1  UNL1       -0.2949
     31 H         138.9182  142.7957  169.5143 H       1  UNL1        0.1825
     32 H         139.3631  143.0264  172.3837 H       1  UNL1        0.2414
@<TRIPOS>BOND
     1    14    15    1
     2    15    16    1
     3    15    17    1
     4    15     5    1
     5     5     6    2
     6     6     7    1
     7     7     8    2
     8     8     9    1
     9     9    10    2
    10    10    11    1
    11    11    12    1
    12    12    13    2
    13    13     4    1
    14     4     3    1
    15     3     1    1
    16     1    18    1
    17    18    19    1
    18    19    20   ar
    19    20    21   ar
    20    21    22   ar
    21    22    25    1
    22    25    26    2
    23    26    27    1
    24    27    28    2
    25    27    29   am
    26    29    30    1
    27    22    23   ar
    28    23    24   ar
    29    13     5    1
    30    24    19   ar
    31    12     7    1
    32     1     2    1
    33    29    31    1
    34    30    32    1
@<TRIPOS>MOLECULE
*****
 32 34 0 0 0
SMALL
GASTEIGER

@<TRIPOS>ATOM
      1 N         141.1809  137.3486  162.6016 N.3     1  UNL1       -0.2935
      2 H         142.0988  137.7382  162.3867 H       1  UNL1        0.1236
      3 C         140.1650  138.3317  162.1001 C.3     1  UNL1        0.0737
      4 C         140.6051  139.6759  161.6003 C.3     1  UNL1        0.0468
      5 C         140.2612  141.7826  163.2093 C.2     1  UNL1        0.1661
      6 N         141.1542  142.5924  164.1018 N.2     1  UNL1       -0.0396
      7 C         142.5390  142.0229  164.0121 C.2     1  UNL1        0.3712
      8 N         143.8290  142.4122  164.6712 N.2     1  UNL1       -0.0311
      9 C         145.0818  141.6396  164.3822 C.2     1  UNL1        0.2318
     10 C         145.0446  140.4777  163.4343 C.2     1  UNL1        0.0293
     11 C         143.7546  140.0884  162.7752 C.3     1  UNL1        0.0640
     12 C         142.5018  140.8610  163.0641 C.2     1  UNL1        0.0699
     13 C         141.0941  140.7125  162.5680 C.2     1  UNL1        0.0216
     14 C         139.0966  142.8755  161.8132 C.3     1  UNL1        0.0082
     15 C         138.7931  142.0039  162.9956 C.3     1  UNL1        0.0589
     16 C         138.4896  141.1323  164.1780 C.3     1  UNL1        0.0082
     17 C         137.3250  142.2252  162.7819 C.3     1  UNL1        0.0082
     18 C         141.2017  136.9656  164.0517 C.3     1  UNL1        0.0956
     19 C         141.5576  137.9861  165.0918 C.ar    1  UNL1       -0.0064
     20 C         140.4963  138.8831  165.6565 C.ar    1  UNL1       -0.0029
     21 C         140.8524  139.9036  166.6967 C.ar    1  UNL1       -0.0003
     22 C         142.2696  140.0270  167.1722 C.ar    1  UNL1        0.0001
     23 C         143.3309  139.1299  166.6075 C.ar    1  UNL1       -0.0003
     24 C         142.9750  138.1094  165.5674 C.ar    1  UNL1       -0.0029
     25 C         142.6256  141.0475  168.2124 C.2     1  UNL1        0.0047
     26 C         141.8777  141.0858  169.5120 C.2     1  UNL1        0.0598
     27 C         142.2336  142.1063  170.5523 C.2     1  UNL1        0.2679
     28 O         141.4777  142.1524  171.8471 O.2     1  UNL1       -0.2681
     29 N         143.3453  143.0806  170.2978 N.am    1  UNL1       -0.1934
     30 O         143.7011  144.1010  171.3381 O.3     1  UNL1       -0.2949
     31 H         143.8415  143.0504  169.4480 H       1  UNL1        0.1825
     32 H         143.1204  143.9942  172.1077 H       1  UNL1        0.2414
@<TRIPOS>BOND
     1    14    15    1
     2    15    16    1
     3    15    17    1
     4    15     5    1
     5     5     6    2
     6     6     7    1
     7     7     8    2
     8     8     9    1
     9     9    10    2
    10    10    11    1
    11    11    12    1
    12    12    13    2
    13    13     4    1
    14     4     3    1
    15     3     1    1
    16     1    18    1
    17    18    19    1
    18    19    20   ar
    19    20    21   ar
    20    21    22   ar
    21    22    25    1
    22    25    26    2
    23    26    27    1
    24    27    28    2
    25    27    29   am
    26    29    30    1
    27    22    23   ar
    28    23    24   ar
    29    13     5    1
    30    24    19   ar
    31    12     7    1
    32     1     2    1
    33    29    31    1
    34    30    32    1
@<TRIPOS>MOLECULE
*****
 32 34 0 0 0
SMALL
GASTEIGER

@<TRIPOS>ATOM
      1 N         145.1822  142.2100  161.9539 N.3     1  UNL1       -0.2935
      2 H         144.8232  143.1545  162.0935 H       1  UNL1        0.1236
      3 C         144.0928  141.4275  161.2825 C.3     1  UNL1        0.0737
      4 C         142.7042  141.9896  161.2048 C.3     1  UNL1        0.0468
      5 C         140.7655  142.5818  162.9471 C.2     1  UNL1        0.1661
      6 N         139.9256  141.7933  163.9076 N.2     1  UNL1       -0.0396
      7 C         140.3304  140.3528  163.8030 C.2     1  UNL1        0.3712
      8 N         139.8472  139.1206  164.5088 N.2     1  UNL1       -0.0311
      9 C         140.4541  137.7866  164.1893 C.2     1  UNL1        0.2318
     10 C         141.5443  137.6848  163.1641 C.2     1  UNL1        0.0293
     11 C         142.0275  138.9170  162.4583 C.3     1  UNL1        0.0640
     12 C         141.4206  140.2510  162.7777 C.2     1  UNL1        0.0699
     13 C         141.6895  141.6286  162.2488 C.2     1  UNL1        0.0216
     14 C         139.7256  143.8474  161.5991 C.3     1  UNL1        0.0082
     15 C         140.6941  144.0634  162.7240 C.3     1  UNL1        0.0589
     16 C         141.6625  144.2795  163.8489 C.3     1  UNL1        0.0082
     17 C         140.6226  145.5451  162.5010 C.3     1  UNL1        0.0082
     18 C         145.7278  141.7545  163.2748 C.3     1  UNL1        0.0956
     19 C         144.8022  141.2031  164.3185 C.ar    1  UNL1       -0.0064
     20 C         144.7277  139.7227  164.5481 C.ar    1  UNL1       -0.0029
     21 C         143.8021  139.1713  165.5919 C.ar    1  UNL1       -0.0003
     22 C         142.9511  140.1003  166.4060 C.ar    1  UNL1        0.0001
     23 C         143.0257  141.5808  166.1764 C.ar    1  UNL1       -0.0003
     24 C         143.9512  142.1322  165.1327 C.ar    1  UNL1       -0.0029
     25 C         142.0256  139.5489  167.4497 C.2     1  UNL1        0.0047
     26 C         141.0526  140.4554  168.1436 C.2     1  UNL1        0.0598
     27 C         140.1270  139.9041  169.1873 C.2     1  UNL1        0.2679
     28 O         138.6788  139.6838  168.8645 O.2     1  UNL1       -0.2681
     29 N         140.6495  139.5730  170.5538 N.am    1  UNL1       -0.1934
     30 O         139.7239  139.0216  171.5974 O.3     1  UNL1       -0.2949
     31 H         141.6000  139.7175  170.7657 H       1  UNL1        0.1825
     32 H         138.8306  138.9418  171.2277 H       1  UNL1        0.2414
@<TRIPOS>BOND
     1    14    15    1
     2    15    16    1
     3    15    17    1
     4    15     5    1
     5     5     6    2
     6     6     7    1
     7     7     8    2
     8     8     9    1
     9     9    10    2
    10    10    11    1
    11    11    12    1
    12    12    13    2
    13    13     4    1
    14     4     3    1
    15     3     1    1
    16     1    18    1
    17    18    19    1
    18    19    20   ar
    19    20    21   ar
    20    21    22   ar
    21    22    25    1
    22    25    26    2
    23    26    27    1
    24    27    28    2
    25    27    29   am
    26    29    30    1
    27    22    23   ar
    28    23    24   ar
    29    13     5    1
    30    24    19   ar
    31    12     7    1
    32     1     2    1
    33    29    31    1
    34    30    32    1
@<TRIPOS>MOLECULE
*****
 32 34 0 0 0
SMALL
GASTEIGER

@<TRIPOS>ATOM
      1 N         139.0312  140.2003  160.6104 N.3     1  UNL1       -0.2935
      2 H         138.7037  140.0972  159.6499 H       1  UNL1        0.1236
      3 C         140.5145  140.4132  160.5416 C.3     1  UNL1        0.0737
      4 C         141.1230  141.6495  161.1346 C.3     1  UNL1        0.0468
      5 C         140.9172  143.0176  163.4217 C.2     1  UNL1        0.1661
      6 N         141.1748  142.7118  164.8674 N.2     1  UNL1       -0.0396
      7 C         141.6548  141.2939  164.9629 C.2     1  UNL1        0.3712
      8 N         142.0614  140.4486  166.1334 N.2     1  UNL1       -0.0311
      9 C         142.5070  139.0327  165.9172 C.2     1  UNL1        0.2318
     10 C         142.5460  138.4622  164.5305 C.2     1  UNL1        0.0293
     11 C         142.1394  139.3075  163.3600 C.3     1  UNL1        0.0640
     12 C         141.6938  140.7234  163.5762 C.2     1  UNL1        0.0699
     13 C         141.2379  141.7887  162.6237 C.2     1  UNL1        0.0216
     14 C         141.8396  144.8108  162.7631 C.3     1  UNL1        0.0082
     15 C         140.4251  144.3232  162.8708 C.3     1  UNL1        0.0589
     16 C         139.0107  143.8355  162.9785 C.3     1  UNL1        0.0082
     17 C         139.9331  145.6287  162.3198 C.3     1  UNL1        0.0082
     18 C         138.4750  139.0420  161.3842 C.3     1  UNL1        0.0956
     19 C         138.4776  139.0716  162.8839 C.ar    1  UNL1       -0.0064
     20 C         138.8697  137.8477  163.6576 C.ar    1  UNL1       -0.0029
     21 C         138.8722  137.8774  165.1573 C.ar    1  UNL1       -0.0003
     22 C         138.4826  139.1308  165.8834 C.ar    1  UNL1        0.0001
     23 C         138.0905  140.3546  165.1098 C.ar    1  UNL1       -0.0003
     24 C         138.0879  140.3250  163.6101 C.ar    1  UNL1       -0.0029
     25 C         138.4851  139.1604  167.3831 C.2     1  UNL1        0.0047
     26 C         139.3384  140.1555  168.1121 C.2     1  UNL1        0.0598
     27 C         139.3410  140.1852  169.6118 C.2     1  UNL1        0.2679
     28 O         138.0875  139.8641  170.3704 O.2     1  UNL1       -0.2681
     29 N         140.5971  140.5358  170.3530 N.am    1  UNL1       -0.1934
     30 O         140.5996  140.5655  171.8527 O.3     1  UNL1       -0.2949
     31 H         141.4199  140.7466  169.8551 H       1  UNL1        0.1825
     32 H         139.7167  140.3354  172.1821 H       1  UNL1        0.2414
@<TRIPOS>BOND
     1    14    15    1
     2    15    16    1
     3    15    17    1
     4    15     5    1
     5     5     6    2
     6     6     7    1
     7     7     8    2
     8     8     9    1
     9     9    10    2
    10    10    11    1
    11    11    12    1
    12    12    13    2
    13    13     4    1
    14     4     3    1
    15     3     1    1
    16     1    18    1
    17    18    19    1
    18    19    20   ar
    19    20    21   ar
    20    21    22   ar
    21    22    25    1
    22    25    26    2
    23    26    27    1
    24    27    28    2
    25    27    29   am
    26    29    30    1
    27    22    23   ar
    28    23    24   ar
    29    13     5    1
    30    24    19   ar
    31    12     7    1
    32     1     2    1
    33    29    31    1
    34    30    32    1
@<TRIPOS>MOLECULE
*****
 32 34 0 0 0
SMALL
GASTEIGER

@<TRIPOS>ATOM
      1 N         138.3824  141.9714  162.0020 N.3     1  UNL1       -0.2935
      2 H         138.6264  140.9876  161.8872 H       1  UNL1        0.1236
      3 C         139.6168  142.7632  161.6866 C.3     1  UNL1        0.0737
      4 C         140.9210  142.0590  161.4555 C.3     1  UNL1        0.0468
      5 C         142.7371  142.0310  163.4166 C.2     1  UNL1        0.1661
      6 N         143.1607  141.0357  164.4558 N.2     1  UNL1       -0.0396
      7 C         142.3237  139.8027  164.2851 C.2     1  UNL1        0.3712
      8 N         142.2967  138.4977  165.0241 N.2     1  UNL1       -0.0311
      9 C         141.3289  137.4259  164.6184 C.2     1  UNL1        0.2318
     10 C         140.3881  137.6592  163.4737 C.2     1  UNL1        0.0293
     11 C         140.4150  138.9642  162.7347 C.3     1  UNL1        0.0640
     12 C         141.3828  140.0359  163.1404 C.2     1  UNL1        0.0699
     13 C         141.6383  141.4131  162.6036 C.2     1  UNL1        0.0216
     14 C         142.3756  143.9411  164.2658 C.3     1  UNL1        0.0082
     15 C         143.3114  143.4033  163.2241 C.3     1  UNL1        0.0589
     16 C         144.2472  142.8656  162.1824 C.3     1  UNL1        0.0082
     17 C         143.8858  144.7756  163.0317 C.3     1  UNL1        0.0082
     18 C         137.7309  142.1020  163.3467 C.3     1  UNL1        0.0956
     19 C         138.4441  141.6209  164.5755 C.ar    1  UNL1       -0.0064
     20 C         139.4065  142.5254  165.2866 C.ar    1  UNL1       -0.0029
     21 C         140.1197  142.0443  166.5154 C.ar    1  UNL1       -0.0003
     22 C         139.8706  140.6586  167.0330 C.ar    1  UNL1        0.0001
     23 C         138.9082  139.7541  166.3219 C.ar    1  UNL1       -0.0003
     24 C         138.1950  140.2352  165.0932 C.ar    1  UNL1       -0.0029
     25 C         140.5838  140.1776  168.2618 C.2     1  UNL1        0.0047
     26 C         141.2132  141.1655  169.1987 C.2     1  UNL1        0.0598
     27 C         141.9264  140.6845  170.4276 C.2     1  UNL1        0.2679
     28 O         141.3280  140.9203  171.7826 O.2     1  UNL1       -0.2681
     29 N         143.2380  139.9677  170.3013 N.am    1  UNL1       -0.1934
     30 O         143.9512  139.4867  171.5302 O.3     1  UNL1       -0.2949
     31 H         143.6308  139.8129  169.4119 H       1  UNL1        0.1825
     32 H         143.4326  139.7184  172.3165 H       1  UNL1        0.2414
@<TRIPOS>BOND
     1    14    15    1
     2    15    16    1
     3    15    17    1
     4    15     5    1
     5     5     6    2
     6     6     7    1
     7     7     8    2
     8     8     9    1
     9     9    10    2
    10    10    11    1
    11    11    12    1
    12    12    13    2
    13    13     4    1
    14     4     3    1
    15     3     1    1
    16     1    18    1
    17    18    19    1
    18    19    20   ar
    19    20    21   ar
    20    21    22   ar
    21    22    25    1
    22    25    26    2
    23    26    27    1
    24    27    28    2
    25    27    29   am
    26    29    30    1
    27    22    23   ar
    28    23    24   ar
    29    13     5    1
    30    24    19   ar
    31    12     7    1
    32     1     2    1
    33    29    31    1
    34    30    32    1
@<TRIPOS>MOLECULE
*****
 32 34 0 0 0
SMALL
GASTEIGER

@<TRIPOS>ATOM
      1 N         139.5968  139.6432  160.6437 N.3     1  UNL1       -0.2935
      2 H         139.6671  139.1930  159.7312 H       1  UNL1        0.1236
      3 C         140.9943  139.7656  161.1750 C.3     1  UNL1        0.0737
      4 C         141.5503  141.1156  161.5190 C.3     1  UNL1        0.0468
      5 C         142.2107  141.2905  164.1032 C.2     1  UNL1        0.1661
      6 N         141.7042  142.0758  165.2766 N.2     1  UNL1       -0.0396
      7 C         140.5677  142.9334  164.8046 C.2     1  UNL1        0.3712
      8 N         139.6859  143.9138  165.5196 N.2     1  UNL1       -0.0311
      9 C         138.6081  144.6389  164.7695 C.2     1  UNL1        0.2318
     10 C         138.4121  144.3836  163.3045 C.2     1  UNL1        0.0293
     11 C         139.2939  143.4032  162.5895 C.3     1  UNL1        0.0640
     12 C         140.3717  142.6781  163.3396 C.2     1  UNL1        0.0699
     13 C         141.3871  141.6627  162.9061 C.2     1  UNL1        0.0216
     14 C         142.4015  139.2347  164.5904 C.3     1  UNL1        0.0082
     15 C         143.3421  140.3058  164.1235 C.3     1  UNL1        0.0589
     16 C         144.2827  141.3769  163.6566 C.3     1  UNL1        0.0082
     17 C         144.4735  139.3211  164.1437 C.3     1  UNL1        0.0082
     18 C         138.5624  138.8854  161.4220 C.3     1  UNL1        0.0956
     19 C         138.5640  138.9383  162.9210 C.ar    1  UNL1       -0.0064
     20 C         139.0277  137.7516  163.7128 C.ar    1  UNL1       -0.0029
     21 C         139.0293  137.8046  165.2119 C.ar    1  UNL1       -0.0003
     22 C         138.5673  139.0440  165.9192 C.ar    1  UNL1        0.0001
     23 C         138.1036  140.2306  165.1274 C.ar    1  UNL1       -0.0003
     24 C         138.1020  140.1778  163.6284 C.ar    1  UNL1       -0.0029
     25 C         138.5690  139.0969  167.4183 C.2     1  UNL1        0.0047
     26 C         139.3530  140.1590  168.1304 C.2     1  UNL1        0.0598
     27 C         139.3547  140.2119  169.6295 C.2     1  UNL1        0.2679
     28 O         138.0715  140.0417  170.3873 O.2     1  UNL1       -0.2681
     29 N         140.6395  140.4350  170.3707 N.am    1  UNL1       -0.1934
     30 O         140.6412  140.4879  171.8697 O.3     1  UNL1       -0.2949
     31 H         141.4818  140.5467  169.8733 H       1  UNL1        0.1825
     32 H         139.7375  140.3609  172.1987 H       1  UNL1        0.2414
@<TRIPOS>BOND
     1    14    15    1
     2    15    16    1
     3    15    17    1
     4    15     5    1
     5     5     6    2
     6     6     7    1
     7     7     8    2
     8     8     9    1
     9     9    10    2
    10    10    11    1
    11    11    12    1
    12    12    13    2
    13    13     4    1
    14     4     3    1
    15     3     1    1
    16     1    18    1
    17    18    19    1
    18    19    20   ar
    19    20    21   ar
    20    21    22   ar
    21    22    25    1
    22    25    26    2
    23    26    27    1
    24    27    28    2
    25    27    29   am
    26    29    30    1
    27    22    23   ar
    28    23    24   ar
    29    13     5    1
    30    24    19   ar
    31    12     7    1
    32     1     2    1
    33    29    31    1
    34    30    32    1
@<TRIPOS>MOLECULE
*****
 32 34 0 0 0
SMALL
GASTEIGER

@<TRIPOS>ATOM
      1 N         141.5900  137.0845  162.6978 N.3     1  UNL1       -0.2935
      2 H         141.9659  136.1454  162.5668 H       1  UNL1        0.1236
      3 C         142.6923  138.0434  162.3583 C.3     1  UNL1        0.0737
      4 C         142.4031  139.2516  161.5175 C.3     1  UNL1        0.0468
      5 C         140.4611  141.0455  161.9124 C.2     1  UNL1        0.1661
      6 N         140.3145  142.2834  162.7466 N.2     1  UNL1       -0.0396
      7 C         141.5953  142.4894  163.4997 C.2     1  UNL1        0.3712
      8 N         142.0284  143.5448  164.4735 N.2     1  UNL1       -0.0311
      9 C         143.3998  143.4896  165.0786 C.2     1  UNL1        0.2318
     10 C         144.3381  142.3789  164.7098 C.2     1  UNL1        0.0293
     11 C         143.9050  141.3235  163.7360 C.3     1  UNL1        0.0640
     12 C         142.5336  141.3787  163.1309 C.2     1  UNL1        0.0699
     13 C         141.8326  140.4863  162.1499 C.2     1  UNL1        0.0216
     14 C         138.8759  139.6540  162.1374 C.3     1  UNL1        0.0082
     15 C         139.4193  140.4680  161.0008 C.3     1  UNL1        0.0589
     16 C         139.9627  141.2821  159.8641 C.3     1  UNL1        0.0082
     17 C         138.3774  139.8906  160.0891 C.3     1  UNL1        0.0082
     18 C         140.9635  137.1140  164.0603 C.3     1  UNL1        0.0956
     19 C         141.3671  138.1678  165.0486 C.ar    1  UNL1       -0.0064
     20 C         142.7263  138.1215  165.6813 C.ar    1  UNL1       -0.0029
     21 C         143.1298  139.1753  166.6696 C.ar    1  UNL1       -0.0003
     22 C         142.1742  140.2754  167.0252 C.ar    1  UNL1        0.0001
     23 C         140.8150  140.3218  166.3924 C.ar    1  UNL1       -0.0003
     24 C         140.4114  139.2680  165.4042 C.ar    1  UNL1       -0.0029
     25 C         142.5778  141.3292  168.0134 C.2     1  UNL1        0.0047
     26 C         141.5322  142.0405  168.8202 C.2     1  UNL1        0.0598
     27 C         141.9357  143.0943  169.8085 C.2     1  UNL1        0.2679
     28 O         140.9491  144.1413  170.2331 O.2     1  UNL1       -0.2681
     29 N         143.3258  143.1012  170.3721 N.am    1  UNL1       -0.1934
     30 O         143.7292  144.1550  171.3604 O.3     1  UNL1       -0.2949
     31 H         143.9734  142.4140  170.0934 H       1  UNL1        0.1825
     32 H         142.9795  144.7483  171.5245 H       1  UNL1        0.2414
@<TRIPOS>BOND
     1    14    15    1
     2    15    16    1
     3    15    17    1
     4    15     5    1
     5     5     6    2
     6     6     7    1
     7     7     8    2
     8     8     9    1
     9     9    10    2
    10    10    11    1
    11    11    12    1
    12    12    13    2
    13    13     4    1
    14     4     3    1
    15     3     1    1
    16     1    18    1
    17    18    19    1
    18    19    20   ar
    19    20    21   ar
    20    21    22   ar
    21    22    25    1
    22    25    26    2
    23    26    27    1
    24    27    28    2
    25    27    29   am
    26    29    30    1
    27    22    23   ar
    28    23    24   ar
    29    13     5    1
    30    24    19   ar
    31    12     7    1
    32     1     2    1
    33    29    31    1
    34    30    32    1
@<TRIPOS>MOLECULE
*****
 32 34 0 0 0
SMALL
GASTEIGER

@<TRIPOS>ATOM
      1 N         138.8382  138.1620  162.8208 N.3     1  UNL1       -0.2935
      2 H         139.8016  138.2770  162.5063 H       1  UNL1        0.1236
      3 C         138.1448  139.4700  162.5794 C.3     1  UNL1        0.0737
      4 C         138.8690  140.5863  161.8868 C.3     1  UNL1        0.0468
      5 C         140.1299  142.3915  163.4022 C.2     1  UNL1        0.1661
      6 N         141.5569  142.6359  163.7944 N.2     1  UNL1       -0.0396
      7 C         142.4034  141.5815  163.1450 C.2     1  UNL1        0.3712
      8 N         143.8804  141.3216  163.1739 N.2     1  UNL1       -0.0311
      9 C         144.4535  140.1656  162.4090 C.2     1  UNL1        0.2318
     10 C         143.5496  139.2694  161.6153 C.2     1  UNL1        0.0293
     11 C         142.0726  139.5293  161.5865 C.3     1  UNL1        0.0640
     12 C         141.4995  140.6854  162.3514 C.2     1  UNL1        0.0699
     13 C         140.0944  141.1860  162.5103 C.2     1  UNL1        0.0216
     14 C         139.1391  144.1053  162.6399 C.3     1  UNL1        0.0082
     15 C         138.9462  143.2090  163.8271 C.3     1  UNL1        0.0589
     16 C         138.7534  142.3127  165.0143 C.3     1  UNL1        0.0082
     17 C         137.7626  144.0265  164.2521 C.3     1  UNL1        0.0082
     18 C         138.9002  137.5907  164.2063 C.3     1  UNL1        0.0956
     19 C         139.3246  138.4557  165.3559 C.ar    1  UNL1       -0.0064
     20 C         140.7137  139.0202  165.3970 C.ar    1  UNL1       -0.0029
     21 C         141.1381  139.8853  166.5466 C.ar    1  UNL1       -0.0003
     22 C         140.1733  140.1859  167.6552 C.ar    1  UNL1        0.0001
     23 C         138.7842  139.6214  167.6141 C.ar    1  UNL1       -0.0003
     24 C         138.3598  138.7563  166.4645 C.ar    1  UNL1       -0.0029
     25 C         140.5977  141.0509  168.8048 C.2     1  UNL1        0.0047
     26 C         141.1924  142.4035  168.5460 C.2     1  UNL1        0.0598
     27 C         141.6168  143.2686  169.6955 C.2     1  UNL1        0.2679
     28 O         140.6341  144.2074  170.3304 O.2     1  UNL1       -0.2681
     29 N         143.0238  143.1950  170.2102 N.am    1  UNL1       -0.1934
     30 O         143.4481  144.0602  171.3597 O.3     1  UNL1       -0.2949
     31 H         143.6688  142.5789  169.7935 H       1  UNL1        0.1825
     32 H         142.6984  144.6030  171.6498 H       1  UNL1        0.2414
@<TRIPOS>BOND
     1    14    15    1
     2    15    16    1
     3    15    17    1
     4    15     5    1
     5     5     6    2
     6     6     7    1
     7     7     8    2
     8     8     9    1
     9     9    10    2
    10    10    11    1
    11    11    12    1
    12    12    13    2
    13    13     4    1
    14     4     3    1
    15     3     1    1
    16     1    18    1
    17    18    19    1
    18    19    20   ar
    19    20    21   ar
    20    21    22   ar
    21    22    25    1
    22    25    26    2
    23    26    27    1
    24    27    28    2
    25    27    29   am
    26    29    30    1
    27    22    23   ar
    28    23    24   ar
    29    13     5    1
    30    24    19   ar
    31    12     7    1
    32     1     2    1
    33    29    31    1
    34    30    32    1
@<TRIPOS>MOLECULE
*****
 32 34 0 0 0
SMALL
GASTEIGER

@<TRIPOS>ATOM
      1 N         143.9711  143.8557  162.0762 N.3     1  UNL1       -0.2935
      2 H         144.5933  144.4827  161.5662 H       1  UNL1        0.1236
      3 C         142.9314  143.3894  161.1007 C.3     1  UNL1        0.0737
      4 C         142.6780  141.9221  160.9189 C.3     1  UNL1        0.0468
      5 C         140.6165  140.8756  162.2606 C.2     1  UNL1        0.1661
      6 N         140.4716  140.0265  163.4887 N.2     1  UNL1       -0.0396
      7 C         141.8448  139.7466  164.0235 C.2     1  UNL1        0.3712
      8 N         142.3187  138.9634  165.2117 N.2     1  UNL1       -0.0311
      9 C         143.7863  138.8563  165.5024 C.2     1  UNL1        0.2318
     10 C         144.7800  139.5323  164.6048 C.2     1  UNL1        0.0293
     11 C         144.3061  140.3154  163.4166 C.3     1  UNL1        0.0640
     12 C         142.8384  140.4226  163.1259 C.2     1  UNL1        0.0699
     13 C         142.0793  141.1203  162.0364 C.2     1  UNL1        0.0216
     14 C         139.5643  140.1475  160.5687 C.3     1  UNL1        0.0082
     15 C         139.4955  141.3896  161.4068 C.3     1  UNL1        0.0589
     16 C         139.4267  142.6317  162.2448 C.3     1  UNL1        0.0082
     17 C         138.3745  141.9036  160.5529 C.3     1  UNL1        0.0082
     18 C         143.5580  144.5770  163.3248 C.3     1  UNL1        0.0956
     19 C         142.9965  143.8083  164.4840 C.ar    1  UNL1       -0.0064
     20 C         143.9203  143.1497  165.4653 C.ar    1  UNL1       -0.0029
     21 C         143.3587  142.3810  166.6245 C.ar    1  UNL1       -0.0003
     22 C         141.8734  142.2708  166.8025 C.ar    1  UNL1        0.0001
     23 C         140.9496  142.9294  165.8212 C.ar    1  UNL1       -0.0003
     24 C         141.5111  143.6981  164.6620 C.ar    1  UNL1       -0.0029
     25 C         141.3119  141.5021  167.9617 C.2     1  UNL1        0.0047
     26 C         141.1486  142.1691  169.2953 C.2     1  UNL1        0.0598
     27 C         140.5871  141.4004  170.4546 C.2     1  UNL1        0.2679
     28 O         140.4386  142.0628  171.7922 O.2     1  UNL1       -0.2681
     29 N         140.1740  139.9695  170.2763 N.am    1  UNL1       -0.1934
     30 O         139.6125  139.2009  171.4356 O.3     1  UNL1       -0.2949
     31 H         140.2714  139.5348  169.3984 H       1  UNL1        0.1825
     32 H         139.5847  139.7721  172.2191 H       1  UNL1        0.2414
@<TRIPOS>BOND
     1    14    15    1
     2    15    16    1
     3    15    17    1
     4    15     5    1
     5     5     6    2
     6     6     7    1
     7     7     8    2
     8     8     9    1
     9     9    10    2
    10    10    11    1
    11    11    12    1
    12    12    13    2
    13    13     4    1
    14     4     3    1
    15     3     1    1
    16     1    18    1
    17    18    19    1
    18    19    20   ar
    19    20    21   ar
    20    21    22   ar
    21    22    25    1
    22    25    26    2
    23    26    27    1
    24    27    28    2
    25    27    29   am
    26    29    30    1
    27    22    23   ar
    28    23    24   ar
    29    13     5    1
    30    24    19   ar
    31    12     7    1
    32     1     2    1
    33    29    31    1
    34    30    32    1
