@<TRIPOS>MOLECULE
*****
 21 23 0 0 0
SMALL
GASTEIGER

@<TRIPOS>ATOM
      1 C         138.7593  140.9529  165.1210 C.ar    1  UNL1        0.2553
      2 N         138.0162  139.7158  165.5299 N.ar    1  UNL1       -0.1751
      3 C         138.2418  139.1198  166.8878 C.ar    1  UNL1        0.2257
      4 O         137.4986  137.8827  167.2968 O.3     1  UNL1       -0.4919
      5 C         139.2105  139.7609  167.8367 C.ar    1  UNL1        0.0767
      6 C         139.9537  140.9980  167.4278 C.ar    1  UNL1        0.0891
      7 N         139.7281  141.5940  166.0699 N.ar    1  UNL1       -0.2098
      8 H         136.8934  137.4822  166.7040 H       1  UNL1        0.2938
      9 C         138.4536  141.5411  159.8825 C.3     1  UNL1        0.0540
     10 C         138.3932  141.8193  161.3552 C.ar    1  UNL1        0.0806
     11 C         137.9800  143.1132  161.9919 C.ar    1  UNL1        0.0313
     12 C         138.0669  142.9461  163.4800 C.ar    1  UNL1        0.0651
     13 C         137.7436  143.9924  164.5050 C.3     1  UNL1        0.0523
     14 N         138.5338  141.5490  163.7631 N.ar    1  UNL1       -0.2008
     15 N         138.7355  140.8526  162.4499 N.ar    1  UNL1       -0.1673
     16 C         140.9225  141.6390  168.3767 C.ar    1  UNL1        0.0179
     17 C         140.5298  142.8773  169.1267 C.ar    1  UNL1        0.0015
     18 C         141.4986  143.5183  170.0756 C.ar    1  UNL1        0.0000
     19 C         142.8601  142.9212  170.2746 C.ar    1  UNL1        0.0000
     20 C         143.2528  141.6830  169.5246 C.ar    1  UNL1        0.0000
     21 C         142.2840  141.0419  168.5757 C.ar    1  UNL1        0.0015
@<TRIPOS>BOND
     1     9    10    1
     2    10    11   ar
     3    11    12   ar
     4    12    13    1
     5    12    14   ar
     6    14     1    1
     7     1     2   ar
     8     2     3   ar
     9     3     4    1
    10     3     5   ar
    11     5     6   ar
    12     6    16    1
    13    16    17   ar
    14    17    18   ar
    15    18    19   ar
    16    19    20   ar
    17    20    21   ar
    18     6     7   ar
    19    14    15   ar
    20    15    10   ar
    21     7     1   ar
    22    21    16   ar
    23     4     8    1
@<TRIPOS>MOLECULE
*****
 21 23 0 0 0
SMALL
GASTEIGER

@<TRIPOS>ATOM
      1 C         139.6512  139.9463  167.5910 C.ar    1  UNL1        0.2553
      2 N         138.3903  139.2166  167.9484 N.ar    1  UNL1       -0.1751
      3 C         137.7987  138.2271  166.9888 C.ar    1  UNL1        0.2257
      4 O         136.5378  137.4974  167.3463 O.3     1  UNL1       -0.4919
      5 C         138.4678  137.9674  165.6717 C.ar    1  UNL1        0.0767
      6 C         139.7287  138.6970  165.3143 C.ar    1  UNL1        0.0891
      7 N         140.3203  139.6865  166.2739 N.ar    1  UNL1       -0.2098
      8 H         136.1198  137.6597  168.1691 H       1  UNL1        0.2938
      9 C         140.6403  144.4164  170.2217 C.3     1  UNL1        0.0540
     10 C         140.6975  142.9904  169.7598 C.ar    1  UNL1        0.0806
     11 C         141.6095  141.9263  170.2947 C.ar    1  UNL1        0.0313
     12 C         141.3285  140.6565  169.5474 C.ar    1  UNL1        0.0651
     13 C         142.0128  139.3387  169.7596 C.3     1  UNL1        0.0523
     14 N         140.2429  140.9358  168.5506 N.ar    1  UNL1       -0.2008
     15 N         139.8530  142.3782  168.6819 N.ar    1  UNL1       -0.1673
     16 C         140.3978  138.4373  163.9972 C.ar    1  UNL1        0.0179
     17 C         141.8879  138.2784  163.9314 C.ar    1  UNL1        0.0015
     18 C         142.5571  138.0187  162.6143 C.ar    1  UNL1        0.0000
     19 C         141.7362  137.9177  161.3630 C.ar    1  UNL1        0.0000
     20 C         140.2461  138.0765  161.4288 C.ar    1  UNL1        0.0000
     21 C         139.5769  138.3363  162.7458 C.ar    1  UNL1        0.0015
@<TRIPOS>BOND
     1     9    10    1
     2    10    11   ar
     3    11    12   ar
     4    12    13    1
     5    12    14   ar
     6    14     1    1
     7     1     2   ar
     8     2     3   ar
     9     3     4    1
    10     3     5   ar
    11     5     6   ar
    12     6    16    1
    13    16    17   ar
    14    17    18   ar
    15    18    19   ar
    16    19    20   ar
    17    20    21   ar
    18     6     7   ar
    19    14    15   ar
    20    15    10   ar
    21     7     1   ar
    22    21    16   ar
    23     4     8    1
@<TRIPOS>MOLECULE
*****
 21 23 0 0 0
SMALL
GASTEIGER

@<TRIPOS>ATOM
      1 C         139.8873  138.9806  165.0224 C.ar    1  UNL1        0.2553
      2 N         138.6270  138.3474  165.5329 N.ar    1  UNL1       -0.1751
      3 C         138.1548  138.6350  166.9272 C.ar    1  UNL1        0.2257
      4 O         136.8944  138.0018  167.4378 O.3     1  UNL1       -0.4919
      5 C         138.9429  139.5558  167.8110 C.ar    1  UNL1        0.0767
      6 C         140.2032  140.1890  167.3005 C.ar    1  UNL1        0.0891
      7 N         140.6754  139.9013  165.9062 N.ar    1  UNL1       -0.2098
      8 H         136.4021  137.4267  166.8858 H       1  UNL1        0.2938
      9 C         142.9607  137.6905  160.9271 C.3     1  UNL1        0.0540
     10 C         141.7723  138.1000  161.7456 C.ar    1  UNL1        0.0806
     11 C         140.4004  138.4008  161.2189 C.ar    1  UNL1        0.0313
     12 C         139.5273  138.7673  162.3822 C.ar    1  UNL1        0.0651
     13 C         138.0766  139.1423  162.3122 C.3     1  UNL1        0.0523
     14 N         140.3596  138.6930  163.6280 N.ar    1  UNL1       -0.2008
     15 N         141.7471  138.2805  163.2345 N.ar    1  UNL1       -0.1673
     16 C         140.9912  141.1097  168.1843 C.ar    1  UNL1        0.0179
     17 C         140.3422  142.3323  168.7623 C.ar    1  UNL1        0.0015
     18 C         141.1303  143.2531  169.6461 C.ar    1  UNL1        0.0000
     19 C         142.5674  142.9513  169.9519 C.ar    1  UNL1        0.0000
     20 C         143.2164  141.7287  169.3740 C.ar    1  UNL1        0.0000
     21 C         142.4284  140.8080  168.4902 C.ar    1  UNL1        0.0015
@<TRIPOS>BOND
     1     9    10    1
     2    10    11   ar
     3    11    12   ar
     4    12    13    1
     5    12    14   ar
     6    14     1    1
     7     1     2   ar
     8     2     3   ar
     9     3     4    1
    10     3     5   ar
    11     5     6   ar
    12     6    16    1
    13    16    17   ar
    14    17    18   ar
    15    18    19   ar
    16    19    20   ar
    17    20    21   ar
    18     6     7   ar
    19    14    15   ar
    20    15    10   ar
    21     7     1   ar
    22    21    16   ar
    23     4     8    1
@<TRIPOS>MOLECULE
*****
 21 23 0 0 0
SMALL
GASTEIGER

@<TRIPOS>ATOM
      1 C         139.0590  140.0029  164.9214 C.ar    1  UNL1        0.2553
      2 N         138.0525  139.0554  165.5037 N.ar    1  UNL1       -0.1751
      3 C         137.9758  138.8627  166.9893 C.ar    1  UNL1        0.2257
      4 O         136.9692  137.9152  167.5717 O.3     1  UNL1       -0.4919
      5 C         138.9056  139.6173  167.8925 C.ar    1  UNL1        0.0767
      6 C         139.9122  140.5648  167.3102 C.ar    1  UNL1        0.0891
      7 N         139.9889  140.7575  165.8246 N.ar    1  UNL1       -0.2098
      8 H         136.3883  137.4438  167.0075 H       1  UNL1        0.2938
      9 C         138.7736  142.1777  160.1183 C.3     1  UNL1        0.0540
     10 C         139.0045  141.1953  161.2281 C.ar    1  UNL1        0.0806
     11 C         139.5032  139.7893  161.0713 C.ar    1  UNL1        0.0313
     12 C         139.5842  139.1715  162.4358 C.ar    1  UNL1        0.0651
     13 C         140.0347  137.7747  162.7458 C.3     1  UNL1        0.0523
     14 N         139.1358  140.1957  163.4358 N.ar    1  UNL1       -0.2008
     15 N         138.7775  141.4465  162.6894 N.ar    1  UNL1       -0.1673
     16 C         140.8421  141.3194  168.2134 C.ar    1  UNL1        0.0179
     17 C         140.3813  142.5828  168.8778 C.ar    1  UNL1        0.0015
     18 C         141.3111  143.3374  169.7811 C.ar    1  UNL1        0.0000
     19 C         142.7019  142.8287  170.0199 C.ar    1  UNL1        0.0000
     20 C         143.1627  141.5654  169.3554 C.ar    1  UNL1        0.0000
     21 C         142.2328  140.8107  168.4522 C.ar    1  UNL1        0.0015
@<TRIPOS>BOND
     1     9    10    1
     2    10    11   ar
     3    11    12   ar
     4    12    13    1
     5    12    14   ar
     6    14     1    1
     7     1     2   ar
     8     2     3   ar
     9     3     4    1
    10     3     5   ar
    11     5     6   ar
    12     6    16    1
    13    16    17   ar
    14    17    18   ar
    15    18    19   ar
    16    19    20   ar
    17    20    21   ar
    18     6     7   ar
    19    14    15   ar
    20    15    10   ar
    21     7     1   ar
    22    21    16   ar
    23     4     8    1
@<TRIPOS>MOLECULE
*****
 21 23 0 0 0
SMALL
GASTEIGER

@<TRIPOS>ATOM
      1 C         143.1843  140.1385  164.8957 C.ar    1  UNL1        0.2553
      2 N         143.8853  138.8716  165.2874 N.ar    1  UNL1       -0.1751
      3 C         143.7527  138.3423  166.6846 C.ar    1  UNL1        0.2257
      4 O         144.4538  137.0753  167.0764 O.3     1  UNL1       -0.4919
      5 C         142.9191  139.0799  167.6901 C.ar    1  UNL1        0.0767
      6 C         142.2181  140.3468  167.2985 C.ar    1  UNL1        0.0891
      7 N         142.3507  140.8761  165.9013 N.ar    1  UNL1       -0.2098
      8 H         144.9746  136.6146  166.4483 H       1  UNL1        0.2938
      9 C         142.1077  141.4191  159.8875 C.3     1  UNL1        0.0540
     10 C         142.8220  141.2565  161.1965 C.ar    1  UNL1        0.0806
     11 C         144.2197  141.7085  161.5003 C.ar    1  UNL1        0.0313
     12 C         144.5255  141.3447  162.9230 C.ar    1  UNL1        0.0651
     13 C         145.8137  141.6109  163.6437 C.3     1  UNL1        0.0523
     14 N         143.3168  140.6679  163.4985 N.ar    1  UNL1       -0.2008
     15 N         142.2640  140.6134  162.4314 N.ar    1  UNL1       -0.1673
     16 C         141.3845  141.0844  168.3040 C.ar    1  UNL1        0.0179
     17 C         141.7091  142.5079  168.6477 C.ar    1  UNL1        0.0015
     18 C         140.8754  143.2455  169.6532 C.ar    1  UNL1        0.0000
     19 C         139.7173  142.5595  170.3150 C.ar    1  UNL1        0.0000
     20 C         139.3927  141.1360  169.9713 C.ar    1  UNL1        0.0000
     21 C         140.2263  140.3984  168.9658 C.ar    1  UNL1        0.0015
@<TRIPOS>BOND
     1     9    10    1
     2    10    11   ar
     3    11    12   ar
     4    12    13    1
     5    12    14   ar
     6    14     1    1
     7     1     2   ar
     8     2     3   ar
     9     3     4    1
    10     3     5   ar
    11     5     6   ar
    12     6    16    1
    13    16    17   ar
    14    17    18   ar
    15    18    19   ar
    16    19    20   ar
    17    20    21   ar
    18     6     7   ar
    19    14    15   ar
    20    15    10   ar
    21     7     1   ar
    22    21    16   ar
    23     4     8    1
@<TRIPOS>MOLECULE
*****
 21 23 0 0 0
SMALL
GASTEIGER

@<TRIPOS>ATOM
      1 C         140.4957  140.8422  164.2295 C.ar    1  UNL1        0.2553
      2 N         139.4890  141.8130  163.6872 N.ar    1  UNL1       -0.1751
      3 C         139.1084  143.0236  164.4867 C.ar    1  UNL1        0.2257
      4 O         138.1017  143.9945  163.9445 O.3     1  UNL1       -0.4919
      5 C         139.7344  143.2635  165.8286 C.ar    1  UNL1        0.0767
      6 C         140.7411  142.2927  166.3709 C.ar    1  UNL1        0.0891
      7 N         141.1217  141.0821  165.5713 N.ar    1  UNL1       -0.2098
      8 H         137.7106  143.8447  163.1063 H       1  UNL1        0.2938
      9 C         142.7326  137.7122  160.6128 C.3     1  UNL1        0.0540
     10 C         141.9046  138.1927  161.7675 C.ar    1  UNL1        0.0806
     11 C         141.0198  137.3439  162.6317 C.ar    1  UNL1        0.0313
     12 C         140.3844  138.2331  163.6590 C.ar    1  UNL1        0.0651
     13 C         139.4253  137.7999  164.7279 C.3     1  UNL1        0.0523
     14 N         140.8764  139.6314  163.4299 N.ar    1  UNL1       -0.2008
     15 N         141.8159  139.6065  162.2609 N.ar    1  UNL1       -0.1673
     16 C         141.3671  142.5326  167.7127 C.ar    1  UNL1        0.0179
     17 C         142.7889  142.1240  167.9608 C.ar    1  UNL1        0.0015
     18 C         143.4149  142.3639  169.3027 C.ar    1  UNL1        0.0000
     19 C         142.6192  143.0124  170.3964 C.ar    1  UNL1        0.0000
     20 C         141.1974  143.4210  170.1483 C.ar    1  UNL1        0.0000
     21 C         140.5714  143.1811  168.8064 C.ar    1  UNL1        0.0015
@<TRIPOS>BOND
     1     9    10    1
     2    10    11   ar
     3    11    12   ar
     4    12    13    1
     5    12    14   ar
     6    14     1    1
     7     1     2   ar
     8     2     3   ar
     9     3     4    1
    10     3     5   ar
    11     5     6   ar
    12     6    16    1
    13    16    17   ar
    14    17    18   ar
    15    18    19   ar
    16    19    20   ar
    17    20    21   ar
    18     6     7   ar
    19    14    15   ar
    20    15    10   ar
    21     7     1   ar
    22    21    16   ar
    23     4     8    1
@<TRIPOS>MOLECULE
*****
 21 23 0 0 0
SMALL
GASTEIGER

@<TRIPOS>ATOM
      1 C         141.6873  139.0618  164.8991 C.ar    1  UNL1        0.2553
      2 N         142.8841  138.2319  165.2578 N.ar    1  UNL1       -0.1751
      3 C         143.4616  138.3068  166.6401 C.ar    1  UNL1        0.2257
      4 O         144.6586  137.4768  166.9989 O.3     1  UNL1       -0.4919
      5 C         142.8423  139.2115  167.6637 C.ar    1  UNL1        0.0767
      6 C         141.6454  140.0414  167.3051 C.ar    1  UNL1        0.0891
      7 N         141.0679  139.9665  165.9227 N.ar    1  UNL1       -0.2098
      8 H         145.0455  136.9117  166.3595 H       1  UNL1        0.2938
      9 C         141.0361  139.6363  159.6907 C.3     1  UNL1        0.0540
     10 C         140.8104  139.2510  161.1228 C.ar    1  UNL1        0.0806
     11 C         139.6314  138.4925  161.6564 C.ar    1  UNL1        0.0313
     12 C         139.8164  138.3293  163.1360 C.ar    1  UNL1        0.0651
     13 C         138.8736  137.6311  164.0707 C.3     1  UNL1        0.0523
     14 N         141.1097  138.9870  163.5167 N.ar    1  UNL1       -0.2008
     15 N         141.7240  139.5566  162.2725 N.ar    1  UNL1       -0.1673
     16 C         141.0260  140.9462  168.3287 C.ar    1  UNL1        0.0179
     17 C         139.8821  140.4579  169.1671 C.ar    1  UNL1        0.0015
     18 C         139.2627  141.3626  170.1907 C.ar    1  UNL1        0.0000
     19 C         139.7872  142.7556  170.3759 C.ar    1  UNL1        0.0000
     20 C         140.9312  143.2439  169.5375 C.ar    1  UNL1        0.0000
     21 C         141.5505  142.3392  168.5139 C.ar    1  UNL1        0.0015
@<TRIPOS>BOND
     1     9    10    1
     2    10    11   ar
     3    11    12   ar
     4    12    13    1
     5    12    14   ar
     6    14     1    1
     7     1     2   ar
     8     2     3   ar
     9     3     4    1
    10     3     5   ar
    11     5     6   ar
    12     6    16    1
    13    16    17   ar
    14    17    18   ar
    15    18    19   ar
    16    19    20   ar
    17    20    21   ar
    18     6     7   ar
    19    14    15   ar
    20    15    10   ar
    21     7     1   ar
    22    21    16   ar
    23     4     8    1
@<TRIPOS>MOLECULE
*****
 21 23 0 0 0
SMALL
GASTEIGER

@<TRIPOS>ATOM
      1 C         141.6087  140.4060  163.9465 C.ar    1  UNL1        0.2553
      2 N         142.9788  140.5679  163.3576 N.ar    1  UNL1       -0.1751
      3 C         144.0497  141.2755  164.1337 C.ar    1  UNL1        0.2257
      4 O         145.4199  141.4375  163.5448 O.3     1  UNL1       -0.4919
      5 C         143.7507  141.8212  165.4985 C.ar    1  UNL1        0.0767
      6 C         142.3807  141.6593  166.0873 C.ar    1  UNL1        0.0891
      7 N         141.3097  140.9517  165.3113 N.ar    1  UNL1       -0.2098
      8 H         145.6067  141.0966  162.6923 H       1  UNL1        0.2938
      9 C         137.5244  139.4643  160.7351 C.3     1  UNL1        0.0540
     10 C         138.6604  139.2655  161.6944 C.ar    1  UNL1        0.0806
     11 C         139.1187  137.9532  162.2584 C.ar    1  UNL1        0.0313
     12 C         140.2790  138.2208  163.1706 C.ar    1  UNL1        0.0651
     13 C         141.0459  137.1915  163.9468 C.3     1  UNL1        0.0523
     14 N         140.5377  139.6983  163.1705 N.ar    1  UNL1       -0.2008
     15 N         139.5373  140.3440  162.2581 N.ar    1  UNL1       -0.1673
     16 C         142.0816  142.2050  167.4522 C.ar    1  UNL1        0.0179
     17 C         143.1424  142.1956  168.5126 C.ar    1  UNL1        0.0015
     18 C         142.8434  142.7413  169.8775 C.ar    1  UNL1        0.0000
     19 C         141.4835  143.2964  170.1818 C.ar    1  UNL1        0.0000
     20 C         140.4227  143.3058  169.1214 C.ar    1  UNL1        0.0000
     21 C         140.7218  142.7601  167.7566 C.ar    1  UNL1        0.0015
@<TRIPOS>BOND
     1     9    10    1
     2    10    11   ar
     3    11    12   ar
     4    12    13    1
     5    12    14   ar
     6    14     1    1
     7     1     2   ar
     8     2     3   ar
     9     3     4    1
    10     3     5   ar
    11     5     6   ar
    12     6    16    1
    13    16    17   ar
    14    17    18   ar
    15    18    19   ar
    16    19    20   ar
    17    20    21   ar
    18     6     7   ar
    19    14    15   ar
    20    15    10   ar
    21     7     1   ar
    22    21    16   ar
    23     4     8    1
@<TRIPOS>MOLECULE
*****
 21 23 0 0 0
SMALL
GASTEIGER

@<TRIPOS>ATOM
      1 C         141.7671  142.0507  163.9557 C.ar    1  UNL1        0.2553
      2 N         141.1385  143.2832  163.3762 N.ar    1  UNL1       -0.1751
      3 C         140.2267  144.1264  164.2174 C.ar    1  UNL1        0.2257
      4 O         139.5980  145.3589  163.6378 O.3     1  UNL1       -0.4919
      5 C         139.9436  143.7372  165.6381 C.ar    1  UNL1        0.0767
      6 C         140.5722  142.5048  166.2176 C.ar    1  UNL1        0.0891
      7 N         141.4840  141.6616  165.3764 N.ar    1  UNL1       -0.2098
      8 H         139.7749  145.6020  162.7504 H       1  UNL1        0.2938
      9 C         143.7821  137.9751  161.2706 C.3     1  UNL1        0.0540
     10 C         143.6051  139.3341  161.8803 C.ar    1  UNL1        0.0806
     11 C         144.5590  140.4855  161.7600 C.ar    1  UNL1        0.0313
     12 C         143.9865  141.6433  162.5227 C.ar    1  UNL1        0.0651
     13 C         144.6119  142.9989  162.6682 C.3     1  UNL1        0.0523
     14 N         142.6789  141.2074  163.1145 N.ar    1  UNL1       -0.2008
     15 N         142.4432  139.7803  162.7175 N.ar    1  UNL1       -0.1673
     16 C         140.2891  142.1156  167.6383 C.ar    1  UNL1        0.0179
     17 C         140.4416  143.1252  168.7371 C.ar    1  UNL1        0.0015
     18 C         140.1585  142.7360  170.1578 C.ar    1  UNL1        0.0000
     19 C         139.7229  141.3372  170.4797 C.ar    1  UNL1        0.0000
     20 C         139.5704  140.3277  169.3809 C.ar    1  UNL1        0.0000
     21 C         139.8535  140.7168  167.9602 C.ar    1  UNL1        0.0015
@<TRIPOS>BOND
     1     9    10    1
     2    10    11   ar
     3    11    12   ar
     4    12    13    1
     5    12    14   ar
     6    14     1    1
     7     1     2   ar
     8     2     3   ar
     9     3     4    1
    10     3     5   ar
    11     5     6   ar
    12     6    16    1
    13    16    17   ar
    14    17    18   ar
    15    18    19   ar
    16    19    20   ar
    17    20    21   ar
    18     6     7   ar
    19    14    15   ar
    20    15    10   ar
    21     7     1   ar
    22    21    16   ar
    23     4     8    1
