@<TRIPOS>MOLECULE
*****
 24 26 0 0 0
SMALL
GASTEIGER

@<TRIPOS>ATOM
      1 C         138.9737  140.4043  169.7476 C.ar    1  UNL1       -0.0001
      2 C         139.6170  141.7080  170.1169 C.ar    1  UNL1       -0.0003
      3 C         140.3604  142.4976  169.0807 C.ar    1  UNL1       -0.0032
      4 C         140.4606  141.9835  167.6751 C.ar    1  UNL1       -0.0088
      5 C         139.8173  140.6798  167.3058 C.ar    1  UNL1       -0.0088
      6 C         139.0738  139.8902  168.3420 C.ar    1  UNL1       -0.0032
      7 C         140.0817  140.4282  165.8508 C.3     1  UNL1        0.0994
      8 N         140.8884  141.5764  165.3210 N.3     1  UNL1       -0.2614
      9 C         141.1226  142.5377  166.4485 C.3     1  UNL1        0.0994
     10 C         136.9582  138.9085  170.4187 C.2     1  UNL1        0.0598
     11 C         138.2302  139.6147  170.7838 C.2     1  UNL1        0.0047
     12 O         136.5339  136.6683  171.6642 O.2     1  UNL1       -0.2681
     13 C         136.2147  138.1189  171.4549 C.2     1  UNL1        0.2679
     14 N         135.1521  138.7799  172.2819 N.am    1  UNL1       -0.1934
     15 O         134.4086  137.9903  173.3181 O.3     1  UNL1       -0.2949
     16 H         134.9426  139.7320  172.1446 H       1  UNL1        0.1825
     17 H         134.7347  137.0768  173.3241 H       1  UNL1        0.2414
     18 C         141.3755  141.7355  163.9112 C.3     1  UNL1        0.0996
     19 C         142.8477  141.7584  163.6244 C.ar    1  UNL1       -0.0061
     20 C         143.4021  142.7298  162.6249 C.ar    1  UNL1       -0.0029
     21 C         144.8742  142.7526  162.3381 C.ar    1  UNL1       -0.0003
     22 C         145.7920  141.8040  163.0509 C.ar    1  UNL1       -0.0000
     23 C         145.2375  140.8326  164.0503 C.ar    1  UNL1       -0.0003
     24 C         143.7654  140.8098  164.3371 C.ar    1  UNL1       -0.0029
@<TRIPOS>BOND
     1    12    13    2
     2    13    10    1
     3    10    11    2
     4    11     1    1
     5     1     2   ar
     6     2     3   ar
     7     3     4   ar
     8     4     5   ar
     9     5     6   ar
    10     5     7    1
    11     7     8    1
    12     8    18    1
    13    18    19    1
    14    19    20   ar
    15    20    21   ar
    16    21    22   ar
    17    22    23   ar
    18    23    24   ar
    19     8     9    1
    20    13    14   am
    21    14    15    1
    22     6     1   ar
    23    24    19   ar
    24     9     4    1
    25    14    16    1
    26    15    17    1
@<TRIPOS>MOLECULE
*****
 24 26 0 0 0
SMALL
GASTEIGER

@<TRIPOS>ATOM
      1 C         142.2912  139.1544  169.5937 C.ar    1  UNL1       -0.0001
      2 C         140.9913  139.7430  170.0560 C.ar    1  UNL1       -0.0003
      3 C         140.0578  140.3714  169.0643 C.ar    1  UNL1       -0.0032
      4 C         140.4241  140.4113  167.6103 C.ar    1  UNL1       -0.0088
      5 C         141.7240  139.8228  167.1480 C.ar    1  UNL1       -0.0088
      6 C         142.6576  139.1943  168.1397 C.ar    1  UNL1       -0.0032
      7 C         141.8143  140.0079  165.6621 C.3     1  UNL1        0.0994
      8 N         140.5701  140.7109  165.2062 N.3     1  UNL1       -0.2614
      9 C         139.7110  140.9602  166.4103 C.3     1  UNL1        0.0994
     10 C         143.5940  137.0780  170.4546 C.2     1  UNL1        0.0598
     11 C         143.2248  138.5259  170.5854 C.2     1  UNL1        0.0047
     12 O         145.7901  137.1569  171.8405 O.2     1  UNL1       -0.2681
     13 C         144.5276  136.4495  171.4463 C.2     1  UNL1        0.2679
     14 N         144.1985  135.1135  172.0438 N.am    1  UNL1       -0.1934
     15 O         145.1321  134.4850  173.0355 O.3     1  UNL1       -0.2949
     16 H         143.3699  134.6492  171.7851 H       1  UNL1        0.1825
     17 H         145.8936  135.0688  173.1777 H       1  UNL1        0.2414
     18 C         140.2426  141.0968  163.7942 C.3     1  UNL1        0.0996
     19 C         139.8061  142.4974  163.4815 C.ar    1  UNL1       -0.0061
     20 C         138.3517  142.8012  163.2751 C.ar    1  UNL1       -0.0029
     21 C         137.9151  144.2018  162.9625 C.ar    1  UNL1       -0.0003
     22 C         138.9330  145.2986  162.8562 C.ar    1  UNL1       -0.0000
     23 C         140.3873  144.9947  163.0625 C.ar    1  UNL1       -0.0003
     24 C         140.8238  143.5941  163.3752 C.ar    1  UNL1       -0.0029
@<TRIPOS>BOND
     1    12    13    2
     2    13    10    1
     3    10    11    2
     4    11     1    1
     5     1     2   ar
     6     2     3   ar
     7     3     4   ar
     8     4     5   ar
     9     5     6   ar
    10     5     7    1
    11     7     8    1
    12     8    18    1
    13    18    19    1
    14    19    20   ar
    15    20    21   ar
    16    21    22   ar
    17    22    23   ar
    18    23    24   ar
    19     8     9    1
    20    13    14   am
    21    14    15    1
    22     6     1   ar
    23    24    19   ar
    24     9     4    1
    25    14    16    1
    26    15    17    1
@<TRIPOS>MOLECULE
*****
 24 26 0 0 0
SMALL
GASTEIGER

@<TRIPOS>ATOM
      1 C         139.1237  140.3500  169.6258 C.ar    1  UNL1       -0.0001
      2 C         139.6420  141.6762  170.0975 C.ar    1  UNL1       -0.0003
      3 C         140.3494  142.5886  169.1398 C.ar    1  UNL1       -0.0032
      4 C         140.5386  142.1747  167.7106 C.ar    1  UNL1       -0.0088
      5 C         140.0204  140.8485  167.2389 C.ar    1  UNL1       -0.0088
      6 C         139.3129  139.9361  168.1966 C.ar    1  UNL1       -0.0032
      7 C         140.3525  140.7123  165.7825 C.3     1  UNL1        0.0994
      8 N         141.0761  141.9545  165.3540 N.3     1  UNL1       -0.2614
      9 C         141.1910  142.8583  166.5456 C.3     1  UNL1        0.0994
     10 C         136.9396  139.2100  170.4506 C.2     1  UNL1        0.0598
     11 C         138.4163  139.4376  170.5835 C.2     1  UNL1        0.0047
     12 O         136.5523  136.8323  171.4234 O.2     1  UNL1       -0.2681
     13 C         136.2322  138.2976  171.4083 C.2     1  UNL1        0.2679
     14 N         135.2046  138.8506  172.3508 N.am    1  UNL1       -0.1934
     15 O         134.4972  137.9382  173.3084 O.3     1  UNL1       -0.2949
     16 H         134.9945  139.8124  172.3408 H       1  UNL1        0.1825
     17 H         134.8191  137.0311  173.1884 H       1  UNL1        0.2414
     18 C         141.5938  142.2423  163.9759 C.3     1  UNL1        0.0996
     19 C         141.0251  143.3824  163.1841 C.ar    1  UNL1       -0.0061
     20 C         141.7201  143.8521  161.9405 C.ar    1  UNL1       -0.0029
     21 C         141.1515  144.9922  161.1487 C.ar    1  UNL1       -0.0003
     22 C         139.8878  145.6625  161.6005 C.ar    1  UNL1       -0.0000
     23 C         139.1929  145.1927  162.8440 C.ar    1  UNL1       -0.0003
     24 C         139.7616  144.0527  163.6358 C.ar    1  UNL1       -0.0029
@<TRIPOS>BOND
     1    12    13    2
     2    13    10    1
     3    10    11    2
     4    11     1    1
     5     1     2   ar
     6     2     3   ar
     7     3     4   ar
     8     4     5   ar
     9     5     6   ar
    10     5     7    1
    11     7     8    1
    12     8    18    1
    13    18    19    1
    14    19    20   ar
    15    20    21   ar
    16    21    22   ar
    17    22    23   ar
    18    23    24   ar
    19     8     9    1
    20    13    14   am
    21    14    15    1
    22     6     1   ar
    23    24    19   ar
    24     9     4    1
    25    14    16    1
    26    15    17    1
@<TRIPOS>MOLECULE
*****
 24 26 0 0 0
SMALL
GASTEIGER

@<TRIPOS>ATOM
      1 C         142.2730  139.1229  169.7214 C.ar    1  UNL1       -0.0001
      2 C         140.9811  139.7202  170.1949 C.ar    1  UNL1       -0.0003
      3 C         140.0606  140.3880  169.2168 C.ar    1  UNL1       -0.0032
      4 C         140.4319  140.4583  167.7652 C.ar    1  UNL1       -0.0088
      5 C         141.7237  139.8610  167.2917 C.ar    1  UNL1       -0.0088
      6 C         142.6443  139.1932  168.2698 C.ar    1  UNL1       -0.0032
      7 C         141.8214  140.0816  165.8112 C.3     1  UNL1        0.0994
      8 N         140.5899  140.8154  165.3697 N.3     1  UNL1       -0.2614
      9 C         139.7311  141.0482  166.5774 C.3     1  UNL1        0.0994
     10 C         143.6818  137.0611  170.4385 C.2     1  UNL1        0.0598
     11 C         143.1936  138.4551  170.6995 C.2     1  UNL1        0.0047
     12 O         145.8862  137.0598  171.8134 O.2     1  UNL1       -0.2681
     13 C         144.6024  136.3934  171.4166 C.2     1  UNL1        0.2679
     14 N         144.2390  135.0591  171.9979 N.am    1  UNL1       -0.1934
     15 O         145.1596  134.3914  172.9760 O.3     1  UNL1       -0.2949
     16 H         143.3964  134.6217  171.7375 H       1  UNL1        0.1825
     17 H         145.9378  134.9517  173.1219 H       1  UNL1        0.2414
     18 C         140.2727  141.2415  163.9669 C.3     1  UNL1        0.0996
     19 C         139.3915  140.3872  163.1046 C.ar    1  UNL1       -0.0061
     20 C         139.3268  138.9061  163.3335 C.ar    1  UNL1       -0.0029
     21 C         138.4456  138.0517  162.4713 C.ar    1  UNL1       -0.0003
     22 C         137.6290  138.6785  161.3801 C.ar    1  UNL1       -0.0000
     23 C         137.6937  140.1595  161.1513 C.ar    1  UNL1       -0.0003
     24 C         138.5749  141.0138  162.0135 C.ar    1  UNL1       -0.0029
@<TRIPOS>BOND
     1    12    13    2
     2    13    10    1
     3    10    11    2
     4    11     1    1
     5     1     2   ar
     6     2     3   ar
     7     3     4   ar
     8     4     5   ar
     9     5     6   ar
    10     5     7    1
    11     7     8    1
    12     8    18    1
    13    18    19    1
    14    19    20   ar
    15    20    21   ar
    16    21    22   ar
    17    22    23   ar
    18    23    24   ar
    19     8     9    1
    20    13    14   am
    21    14    15    1
    22     6     1   ar
    23    24    19   ar
    24     9     4    1
    25    14    16    1
    26    15    17    1
@<TRIPOS>MOLECULE
*****
 24 26 0 0 0
SMALL
GASTEIGER

@<TRIPOS>ATOM
      1 C         139.7667  140.2442  167.9948 C.ar    1  UNL1       -0.0001
      2 C         138.4725  139.4866  168.0286 C.ar    1  UNL1       -0.0003
      3 C         138.0354  138.6950  166.8318 C.ar    1  UNL1       -0.0032
      4 C         138.8925  138.6608  165.6013 C.ar    1  UNL1       -0.0088
      5 C         140.1867  139.4183  165.5676 C.ar    1  UNL1       -0.0088
      6 C         140.6238  140.2100  166.7643 C.ar    1  UNL1       -0.0032
      7 C         140.8174  139.1990  164.2243 C.3     1  UNL1        0.0994
      8 N         139.9129  138.3059  163.4279 N.3     1  UNL1       -0.2614
      9 C         138.7233  137.9733  164.2790 C.3     1  UNL1        0.0994
     10 C         141.5942  141.5951  169.2539 C.2     1  UNL1        0.0598
     11 C         140.2038  141.0358  169.1916 C.2     1  UNL1        0.0047
     12 O         141.3721  142.1633  171.7793 O.2     1  UNL1       -0.2681
     13 C         142.0313  142.3867  170.4506 C.2     1  UNL1        0.2679
     14 N         143.1277  143.4019  170.3186 N.am    1  UNL1       -0.1934
     15 O         143.5648  144.1936  171.5154 O.3     1  UNL1       -0.2949
     16 H         143.5605  143.5486  169.4466 H       1  UNL1        0.1825
     17 H         143.0411  143.9282  172.2875 H       1  UNL1        0.2414
     18 C         140.1554  137.8291  162.0265 C.3     1  UNL1        0.0996
     19 C         141.2868  138.4012  161.2249 C.ar    1  UNL1       -0.0061
     20 C         142.6827  137.8910  161.4276 C.ar    1  UNL1       -0.0029
     21 C         143.8141  138.4631  160.6260 C.ar    1  UNL1       -0.0003
     22 C         143.5496  139.5454  159.6216 C.ar    1  UNL1       -0.0000
     23 C         142.1536  140.0555  159.4189 C.ar    1  UNL1       -0.0003
     24 C         141.0222  139.4834  160.2205 C.ar    1  UNL1       -0.0029
@<TRIPOS>BOND
     1    12    13    2
     2    13    10    1
     3    10    11    2
     4    11     1    1
     5     1     2   ar
     6     2     3   ar
     7     3     4   ar
     8     4     5   ar
     9     5     6   ar
    10     5     7    1
    11     7     8    1
    12     8    18    1
    13    18    19    1
    14    19    20   ar
    15    20    21   ar
    16    21    22   ar
    17    22    23   ar
    18    23    24   ar
    19     8     9    1
    20    13    14   am
    21    14    15    1
    22     6     1   ar
    23    24    19   ar
    24     9     4    1
    25    14    16    1
    26    15    17    1
@<TRIPOS>MOLECULE
*****
 24 26 0 0 0
SMALL
GASTEIGER

@<TRIPOS>ATOM
      1 C         141.9031  142.2380  167.0272 C.ar    1  UNL1       -0.0001
      2 C         143.2976  142.3619  166.4887 C.ar    1  UNL1       -0.0003
      3 C         143.5412  143.0833  165.1964 C.ar    1  UNL1       -0.0032
      4 C         142.3903  143.6809  164.4425 C.ar    1  UNL1       -0.0088
      5 C         140.9958  143.5569  164.9810 C.ar    1  UNL1       -0.0088
      6 C         140.7522  142.8355  166.2734 C.ar    1  UNL1       -0.0032
      7 C         140.0666  144.2429  164.0239 C.3     1  UNL1        0.0994
      8 N         140.8868  144.7908  162.8938 N.3     1  UNL1       -0.2614
      9 C         142.3230  144.4434  163.1526 C.3     1  UNL1        0.0994
     10 C         140.5238  141.9310  169.2074 C.2     1  UNL1        0.0598
     11 C         141.6595  141.5165  168.3196 C.2     1  UNL1        0.0047
     12 O         140.4754  141.9224  171.8050 O.2     1  UNL1       -0.2681
     13 C         140.2802  141.2095  170.4998 C.2     1  UNL1        0.2679
     14 N         139.8414  139.7752  170.4868 N.am    1  UNL1       -0.1934
     15 O         139.5978  139.0537  171.7792 O.3     1  UNL1       -0.2949
     16 H         139.7133  139.3073  169.6301 H       1  UNL1        0.1825
     17 H         139.7685  139.6540  172.5218 H       1  UNL1        0.2414
     18 C         140.3630  145.5523  161.7124 C.3     1  UNL1        0.0996
     19 C         140.1208  144.8453  160.4118 C.ar    1  UNL1       -0.0061
     20 C         139.5731  143.4488  160.4079 C.ar    1  UNL1       -0.0029
     21 C         139.3309  142.7418  159.1073 C.ar    1  UNL1       -0.0003
     22 C         139.6365  143.4313  157.8106 C.ar    1  UNL1       -0.0000
     23 C         140.1842  144.8277  157.8146 C.ar    1  UNL1       -0.0003
     24 C         140.4264  145.5347  159.1152 C.ar    1  UNL1       -0.0029
@<TRIPOS>BOND
     1    12    13    2
     2    13    10    1
     3    10    11    2
     4    11     1    1
     5     1     2   ar
     6     2     3   ar
     7     3     4   ar
     8     4     5   ar
     9     5     6   ar
    10     5     7    1
    11     7     8    1
    12     8    18    1
    13    18    19    1
    14    19    20   ar
    15    20    21   ar
    16    21    22   ar
    17    22    23   ar
    18    23    24   ar
    19     8     9    1
    20    13    14   am
    21    14    15    1
    22     6     1   ar
    23    24    19   ar
    24     9     4    1
    25    14    16    1
    26    15    17    1
@<TRIPOS>MOLECULE
*****
 24 26 0 0 0
SMALL
GASTEIGER

@<TRIPOS>ATOM
      1 C         142.2854  140.2985  167.1909 C.ar    1  UNL1       -0.0001
      2 C         143.1496  139.1122  166.8813 C.ar    1  UNL1       -0.0003
      3 C         142.7550  138.1611  165.7905 C.ar    1  UNL1       -0.0032
      4 C         141.4963  138.3962  165.0094 C.ar    1  UNL1       -0.0088
      5 C         140.6321  139.5825  165.3190 C.ar    1  UNL1       -0.0088
      6 C         141.0267  140.5336  166.4098 C.ar    1  UNL1       -0.0032
      7 C         139.4571  139.5560  164.3869 C.3     1  UNL1        0.0994
      8 N         139.5952  138.3533  163.5012 N.3     1  UNL1       -0.2614
      9 C         140.8555  137.6366  163.8859 C.3     1  UNL1        0.0994
     10 C         141.8924  141.2961  169.5574 C.2     1  UNL1        0.0598
     11 C         142.6800  141.2496  168.2816 C.2     1  UNL1        0.0047
     12 O         141.5847  142.2023  171.9727 O.2     1  UNL1       -0.2681
     13 C         142.2870  142.2472  170.6481 C.2     1  UNL1        0.2679
     14 N         143.3840  143.2433  170.4141 N.am    1  UNL1       -0.1934
     15 O         143.7785  144.1944  171.5049 O.3     1  UNL1       -0.2949
     16 H         143.8449  143.2727  169.5447 H       1  UNL1        0.1825
     17 H         143.2302  144.0330  172.2886 H       1  UNL1        0.2414
     18 C         138.6407  137.9399  162.4204 C.3     1  UNL1        0.0996
     19 C         138.6921  138.6082  161.0784 C.ar    1  UNL1       -0.0061
     20 C         139.7717  138.2470  160.1016 C.ar    1  UNL1       -0.0029
     21 C         139.8232  138.9152  158.7597 C.ar    1  UNL1       -0.0003
     22 C         138.7950  139.9446  158.3945 C.ar    1  UNL1       -0.0000
     23 C         137.7154  140.3057  159.3713 C.ar    1  UNL1       -0.0003
     24 C         137.6640  139.6375  160.7133 C.ar    1  UNL1       -0.0029
@<TRIPOS>BOND
     1    12    13    2
     2    13    10    1
     3    10    11    2
     4    11     1    1
     5     1     2   ar
     6     2     3   ar
     7     3     4   ar
     8     4     5   ar
     9     5     6   ar
    10     5     7    1
    11     7     8    1
    12     8    18    1
    13    18    19    1
    14    19    20   ar
    15    20    21   ar
    16    21    22   ar
    17    22    23   ar
    18    23    24   ar
    19     8     9    1
    20    13    14   am
    21    14    15    1
    22     6     1   ar
    23    24    19   ar
    24     9     4    1
    25    14    16    1
    26    15    17    1
@<TRIPOS>MOLECULE
*****
 24 26 0 0 0
SMALL
GASTEIGER

@<TRIPOS>ATOM
      1 C         138.4694  139.0773  165.9317 C.ar    1  UNL1       -0.0001
      2 C         138.8957  137.7672  165.3386 C.ar    1  UNL1       -0.0003
      3 C         138.9680  137.6063  163.8490 C.ar    1  UNL1       -0.0032
      4 C         138.6140  138.7555  162.9525 C.ar    1  UNL1       -0.0088
      5 C         138.1876  140.0656  163.5455 C.ar    1  UNL1       -0.0088
      6 C         138.1153  140.2265  165.0351 C.ar    1  UNL1       -0.0032
      7 C         137.9012  141.0133  162.4186 C.3     1  UNL1        0.0994
      8 N         138.1504  140.2888  161.1290 N.3     1  UNL1       -0.2614
      9 C         138.5910  138.8934  161.4590 C.3     1  UNL1        0.0994
     10 C         139.4784  139.9808  168.1488 C.2     1  UNL1        0.0598
     11 C         138.3971  139.2382  167.4213 C.2     1  UNL1        0.0047
     12 O         138.0866  140.0254  170.3421 O.2     1  UNL1       -0.2681
     13 C         139.4061  140.1417  169.6384 C.2     1  UNL1        0.2679
     14 N         140.6534  140.4189  170.4242 N.am    1  UNL1       -0.1934
     15 O         140.5811  140.5798  171.9138 O.3     1  UNL1       -0.2949
     16 H         141.5194  140.4952  169.9623 H       1  UNL1        0.1825
     17 H         139.6620  140.4759  172.2060 H       1  UNL1        0.2414
     18 C         137.9878  140.8594  159.7513 C.3     1  UNL1        0.0996
     19 C         138.9839  141.8514  159.2280 C.ar    1  UNL1       -0.0061
     20 C         140.3441  141.9492  159.8528 C.ar    1  UNL1       -0.0029
     21 C         141.3402  142.9411  159.3294 C.ar    1  UNL1       -0.0003
     22 C         140.9761  143.8352  158.1813 C.ar    1  UNL1       -0.0000
     23 C         139.6159  143.7374  157.5566 C.ar    1  UNL1       -0.0003
     24 C         138.6198  142.7454  158.0800 C.ar    1  UNL1       -0.0029
@<TRIPOS>BOND
     1    12    13    2
     2    13    10    1
     3    10    11    2
     4    11     1    1
     5     1     2   ar
     6     2     3   ar
     7     3     4   ar
     8     4     5   ar
     9     5     6   ar
    10     5     7    1
    11     7     8    1
    12     8    18    1
    13    18    19    1
    14    19    20   ar
    15    20    21   ar
    16    21    22   ar
    17    22    23   ar
    18    23    24   ar
    19     8     9    1
    20    13    14   am
    21    14    15    1
    22     6     1   ar
    23    24    19   ar
    24     9     4    1
    25    14    16    1
    26    15    17    1
@<TRIPOS>MOLECULE
*****
 24 26 0 0 0
SMALL
GASTEIGER

@<TRIPOS>ATOM
      1 C         139.7640  140.4723  167.3221 C.ar    1  UNL1       -0.0001
      2 C         138.7680  139.3963  167.0061 C.ar    1  UNL1       -0.0003
      3 C         138.0535  139.3995  165.6872 C.ar    1  UNL1       -0.0032
      4 C         138.3351  140.4788  164.6843 C.ar    1  UNL1       -0.0088
      5 C         139.3311  141.5549  165.0004 C.ar    1  UNL1       -0.0088
      6 C         140.0455  141.5517  166.3193 C.ar    1  UNL1       -0.0032
      7 C         139.4012  142.4819  163.8231 C.3     1  UNL1        0.0994
      8 N         138.4485  141.9787  162.7796 N.3     1  UNL1       -0.2614
      9 C         137.7896  140.7407  163.3118 C.3     1  UNL1        0.0994
     10 C         140.0548  141.4144  169.7258 C.2     1  UNL1        0.0598
     11 C         140.4785  140.4691  168.6410 C.2     1  UNL1        0.0047
     12 O         140.3072  142.3135  172.1502 O.2     1  UNL1       -0.2681
     13 C         140.7693  141.4111  171.0448 C.2     1  UNL1        0.2679
     14 N         141.9458  140.5055  171.2581 N.am    1  UNL1       -0.1934
     15 O         142.6603  140.5022  172.5770 O.3     1  UNL1       -0.2949
     16 H         142.2491  139.9132  170.5326 H       1  UNL1        0.1825
     17 H         142.2375  141.1380  173.1754 H       1  UNL1        0.2414
     18 C         138.1985  142.6037  161.4390 C.3     1  UNL1        0.0996
     19 C         139.3396  143.1851  160.6581 C.ar    1  UNL1       -0.0061
     20 C         140.0090  142.3718  159.5901 C.ar    1  UNL1       -0.0029
     21 C         141.1501  142.9532  158.8092 C.ar    1  UNL1       -0.0003
     22 C         141.6218  144.3480  159.0962 C.ar    1  UNL1       -0.0000
     23 C         140.9524  145.1612  160.1641 C.ar    1  UNL1       -0.0003
     24 C         139.8113  144.5798  160.9451 C.ar    1  UNL1       -0.0029
@<TRIPOS>BOND
     1    12    13    2
     2    13    10    1
     3    10    11    2
     4    11     1    1
     5     1     2   ar
     6     2     3   ar
     7     3     4   ar
     8     4     5   ar
     9     5     6   ar
    10     5     7    1
    11     7     8    1
    12     8    18    1
    13    18    19    1
    14    19    20   ar
    15    20    21   ar
    16    21    22   ar
    17    22    23   ar
    18    23    24   ar
    19     8     9    1
    20    13    14   am
    21    14    15    1
    22     6     1   ar
    23    24    19   ar
    24     9     4    1
    25    14    16    1
    26    15    17    1
