@<TRIPOS>MOLECULE
*****
 31 34 0 0 0
SMALL
GASTEIGER

@<TRIPOS>ATOM
      1 C         141.4048  142.0756  166.1899 C.2     1  UNL1        0.0049
      2 C         140.9295  142.5403  167.5346 C.2     1  UNL1        0.0131
      3 C         141.2277  141.7256  168.7582 C.3     1  UNL1        0.1542
      4 C         140.4543  143.0050  168.8793 C.3     1  UNL1        0.0614
      5 C         139.9790  143.4697  170.2239 C.3     1  UNL1        0.0725
      6 N         140.2772  142.6550  171.4476 N.3     1  UNL1       -0.2972
      7 C         141.0507  141.3755  171.3265 C.3     1  UNL1        0.0725
      8 C         141.5260  140.9108  169.9819 C.3     1  UNL1        0.0614
      9 O         142.0013  140.4461  168.6371 O.3     1  UNL1       -0.4784
     10 C         142.4765  139.9814  167.2925 C.ar    1  UNL1        0.1415
     11 C         143.2500  138.7019  167.1714 C.ar    1  UNL1        0.0371
     12 C         143.7253  138.2372  165.8267 C.ar    1  UNL1        0.0062
     13 C         143.4271  139.0519  164.6031 C.ar    1  UNL1        0.0368
     14 C         142.6536  140.3314  164.7242 C.ar    1  UNL1        0.1365
     15 O         142.3554  141.1461  163.5005 O.3     1  UNL1       -0.5054
     16 C         142.1783  140.7961  166.0689 C.ar    1  UNL1        0.0674
     17 H         139.3794  142.4175  171.8692 H       1  UNL1        0.1233
     18 H         142.6522  140.8558  162.6606 H       1  UNL1        0.2922
     19 C         140.5101  144.5198  162.5191 C.ar    1  UNL1        0.0536
     20 C         141.7556  144.7853  163.3116 C.ar    1  UNL1        0.0045
     21 C         142.0539  143.9705  164.5353 C.ar    1  UNL1        0.0001
     22 C         141.1066  142.8903  164.9663 C.ar    1  UNL1       -0.0000
     23 C         139.8610  142.6249  164.1737 C.ar    1  UNL1        0.0001
     24 C         139.5628  143.4396  162.9501 C.ar    1  UNL1        0.0045
     25 N         140.8327  144.9675  159.9803 N.am    1  UNL1       -0.2761
     26 C         140.2119  145.3346  161.2954 C.2     1  UNL1        0.2490
     27 O         139.2928  146.5165  161.3871 O.2     1  UNL1       -0.2699
     28 C         141.5255  145.8365  157.6319 C.3     1  UNL1        0.0233
     29 C         140.5345  145.7822  158.7567 C.3     1  UNL1        0.0938
     30 C         141.7519  143.7855  159.8887 C.3     1  UNL1        0.0938
     31 C         141.2114  142.4443  159.4899 C.3     1  UNL1        0.0233
@<TRIPOS>BOND
     1    28    29    1
     2    29    25    1
     3    25    30    1
     4    30    31    1
     5    25    26   am
     6    26    27    2
     7    26    19    1
     8    19    20   ar
     9    20    21   ar
    10    21    22   ar
    11    22     1    1
    12     1     2    2
    13     2     3    1
    14     3     4    1
    15     4     5    1
    16     5     6    1
    17     6     7    1
    18     7     8    1
    19     3     9    1
    20     9    10    1
    21    10    11   ar
    22    11    12   ar
    23    12    13   ar
    24    13    14   ar
    25    14    15    1
    26    14    16   ar
    27    22    23   ar
    28    23    24   ar
    29    24    19   ar
    30    16     1    1
    31     8     3    1
    32    16    10   ar
    33     6    17    1
    34    15    18    1
@<TRIPOS>MOLECULE
*****
 31 34 0 0 0
SMALL
GASTEIGER

@<TRIPOS>ATOM
      1 C         139.7911  141.9185  165.7302 C.2     1  UNL1        0.0049
      2 C         140.1483  142.4535  167.0853 C.2     1  UNL1        0.0131
      3 C         140.1267  141.5460  168.2795 C.3     1  UNL1        0.1542
      4 C         140.5054  142.9884  168.4404 C.3     1  UNL1        0.0614
      5 C         140.8626  143.5233  169.7955 C.3     1  UNL1        0.0725
      6 N         140.8410  142.6158  170.9896 N.3     1  UNL1       -0.2972
      7 C         140.4622  141.1734  170.8287 C.3     1  UNL1        0.0725
      8 C         140.1051  140.6385  169.4736 C.3     1  UNL1        0.0614
      9 O         139.7479  140.1035  168.1185 O.3     1  UNL1       -0.4784
     10 C         139.3908  139.5686  166.7634 C.ar    1  UNL1        0.1415
     11 C         139.0120  138.1261  166.6024 C.ar    1  UNL1        0.0371
     12 C         138.6548  137.5912  165.2473 C.ar    1  UNL1        0.0062
     13 C         138.6764  138.4987  164.0532 C.ar    1  UNL1        0.0368
     14 C         139.0552  139.9411  164.2141 C.ar    1  UNL1        0.1365
     15 O         139.0768  140.8487  163.0200 O.3     1  UNL1       -0.5054
     16 C         139.4124  140.4761  165.5692 C.ar    1  UNL1        0.0674
     17 H         140.1826  143.0206  171.6552 H       1  UNL1        0.1233
     18 H         138.8537  140.5145  162.1735 H       1  UNL1        0.2922
     19 C         139.8559  144.6411  162.1478 C.ar    1  UNL1        0.0536
     20 C         141.1246  143.9983  162.6243 C.ar    1  UNL1        0.0045
     21 C         141.1030  143.0908  163.8185 C.ar    1  UNL1        0.0001
     22 C         139.8127  142.8260  164.5361 C.ar    1  UNL1       -0.0000
     23 C         138.5439  143.4688  164.0595 C.ar    1  UNL1        0.0001
     24 C         138.5655  144.3763  162.8654 C.ar    1  UNL1        0.0045
     25 N         140.2785  145.0125  159.6114 N.am    1  UNL1       -0.2761
     26 C         139.8775  145.5486  160.9536 C.2     1  UNL1        0.2490
     27 O         139.4981  146.9923  161.1018 O.2     1  UNL1       -0.2699
     28 C         141.4932  145.9350  157.5082 C.3     1  UNL1        0.0233
     29 C         140.3001  145.9200  158.4172 C.3     1  UNL1        0.0938
     30 C         140.6579  143.5688  159.4632 C.3     1  UNL1        0.0938
     31 C         139.6107  142.5487  159.1276 C.3     1  UNL1        0.0233
@<TRIPOS>BOND
     1    28    29    1
     2    29    25    1
     3    25    30    1
     4    30    31    1
     5    25    26   am
     6    26    27    2
     7    26    19    1
     8    19    20   ar
     9    20    21   ar
    10    21    22   ar
    11    22     1    1
    12     1     2    2
    13     2     3    1
    14     3     4    1
    15     4     5    1
    16     5     6    1
    17     6     7    1
    18     7     8    1
    19     3     9    1
    20     9    10    1
    21    10    11   ar
    22    11    12   ar
    23    12    13   ar
    24    13    14   ar
    25    14    15    1
    26    14    16   ar
    27    22    23   ar
    28    23    24   ar
    29    24    19   ar
    30    16     1    1
    31     8     3    1
    32    16    10   ar
    33     6    17    1
    34    15    18    1
@<TRIPOS>MOLECULE
*****
 31 34 0 0 0
SMALL
GASTEIGER

@<TRIPOS>ATOM
      1 C         141.5102  140.9527  166.3036 C.2     1  UNL1        0.0049
      2 C         142.1273  141.5744  167.5213 C.2     1  UNL1        0.0131
      3 C         141.4831  141.3937  168.8638 C.3     1  UNL1        0.1542
      4 C         142.7443  142.1960  168.7390 C.3     1  UNL1        0.0614
      5 C         143.3613  142.8176  169.9567 C.3     1  UNL1        0.0725
      6 N         142.7171  142.6369  171.2992 N.3     1  UNL1       -0.2972
      7 C         141.4559  141.8346  171.4241 C.3     1  UNL1        0.0725
      8 C         140.8389  141.2130  170.2064 C.3     1  UNL1        0.0614
      9 O         140.2218  140.5913  168.9886 O.3     1  UNL1       -0.4784
     10 C         139.6048  139.9696  167.7709 C.ar    1  UNL1        0.1415
     11 C         138.3436  139.1673  167.8957 C.ar    1  UNL1        0.0371
     12 C         137.7265  138.5456  166.6780 C.ar    1  UNL1        0.0062
     13 C         138.3707  138.7263  165.3355 C.ar    1  UNL1        0.0368
     14 C         139.6319  139.5287  165.2107 C.ar    1  UNL1        0.1365
     15 O         140.2761  139.7093  163.8681 O.3     1  UNL1       -0.5054
     16 C         140.2490  140.1503  166.4284 C.ar    1  UNL1        0.0674
     17 H         142.5086  143.5703  171.6538 H       1  UNL1        0.1233
     18 H         139.8906  139.3210  163.1075 H       1  UNL1        0.2922
     19 C         143.4427  141.4947  162.2760 C.ar    1  UNL1        0.0536
     20 C         142.3679  142.4396  162.7254 C.ar    1  UNL1        0.0045
     21 C         141.7237  142.2589  164.0679 C.ar    1  UNL1        0.0001
     22 C         142.1543  141.1334  164.9610 C.ar    1  UNL1       -0.0000
     23 C         143.2292  140.1884  164.5116 C.ar    1  UNL1        0.0001
     24 C         143.8734  140.3691  163.1691 C.ar    1  UNL1        0.0045
     25 N         143.5853  140.9013  159.7506 N.am    1  UNL1       -0.2761
     26 C         144.0869  141.6754  160.9334 C.2     1  UNL1        0.2490
     27 O         145.2327  142.6303  160.7738 O.2     1  UNL1       -0.2699
     28 C         143.7843  142.1950  157.5063 C.3     1  UNL1        0.0233
     29 C         144.2295  141.0820  158.4081 C.3     1  UNL1        0.0938
     30 C         142.4395  139.9465  159.9103 C.3     1  UNL1        0.0938
     31 C         142.7009  138.4741  160.0274 C.3     1  UNL1        0.0233
@<TRIPOS>BOND
     1    28    29    1
     2    29    25    1
     3    25    30    1
     4    30    31    1
     5    25    26   am
     6    26    27    2
     7    26    19    1
     8    19    20   ar
     9    20    21   ar
    10    21    22   ar
    11    22     1    1
    12     1     2    2
    13     2     3    1
    14     3     4    1
    15     4     5    1
    16     5     6    1
    17     6     7    1
    18     7     8    1
    19     3     9    1
    20     9    10    1
    21    10    11   ar
    22    11    12   ar
    23    12    13   ar
    24    13    14   ar
    25    14    15    1
    26    14    16   ar
    27    22    23   ar
    28    23    24   ar
    29    24    19   ar
    30    16     1    1
    31     8     3    1
    32    16    10   ar
    33     6    17    1
    34    15    18    1
@<TRIPOS>MOLECULE
*****
 31 34 0 0 0
SMALL
GASTEIGER

@<TRIPOS>ATOM
      1 C         140.4452  142.4032  161.4855 C.2     1  UNL1        0.0049
      2 C         141.9158  142.1112  161.5333 C.2     1  UNL1        0.0131
      3 C         142.7301  142.5530  162.7129 C.3     1  UNL1        0.1542
      4 C         143.3863  141.8193  161.5811 C.3     1  UNL1        0.0614
      5 C         144.8568  141.5274  161.6289 C.3     1  UNL1        0.0725
      6 N         145.6711  141.9691  162.8086 N.3     1  UNL1       -0.2972
      7 C         145.0150  142.7028  163.9405 C.3     1  UNL1        0.0725
      8 C         143.5445  142.9947  163.8926 C.3     1  UNL1        0.0614
      9 O         142.0739  143.2867  163.8448 O.3     1  UNL1       -0.4784
     10 C         140.6034  143.5786  163.7970 C.ar    1  UNL1        0.1415
     11 C         139.9472  144.3123  164.9289 C.ar    1  UNL1        0.0371
     12 C         138.4767  144.6043  164.8811 C.ar    1  UNL1        0.0062
     13 C         137.6623  144.1625  163.7014 C.ar    1  UNL1        0.0368
     14 C         138.3184  143.4288  162.5696 C.ar    1  UNL1        0.1365
     15 O         137.5041  142.9871  161.3899 O.3     1  UNL1       -0.5054
     16 C         139.7890  143.1369  162.6173 C.ar    1  UNL1        0.0674
     17 H         146.4047  142.5793  162.4481 H       1  UNL1        0.1233
     18 H         136.5855  143.1695  161.3600 H       1  UNL1        0.2922
     19 C         138.0020  141.0780  157.9464 C.ar    1  UNL1        0.0536
     20 C         138.5558  142.4711  157.9961 C.ar    1  UNL1        0.0045
     21 C         139.3702  142.9128  159.1758 C.ar    1  UNL1        0.0001
     22 C         139.6308  141.9615  160.3058 C.ar    1  UNL1       -0.0000
     23 C         139.0770  140.5682  160.2561 C.ar    1  UNL1        0.0001
     24 C         138.2627  140.1265  159.0764 C.ar    1  UNL1        0.0045
     25 N         137.8707  140.1265  155.5324 N.am    1  UNL1       -0.2761
     26 C         137.1877  140.6362  156.7667 C.2     1  UNL1        0.2490
     27 O         135.6902  140.7043  156.8214 O.2     1  UNL1       -0.2699
     28 C         136.6222  138.2538  154.2346 C.3     1  UNL1        0.0233
     29 C         137.0564  139.6848  154.3527 C.3     1  UNL1        0.0938
     30 C         139.3682  140.0585  155.4778 C.3     1  UNL1        0.0938
     31 C         140.0756  138.7900  155.8527 C.3     1  UNL1        0.0233
@<TRIPOS>BOND
     1    28    29    1
     2    29    25    1
     3    25    30    1
     4    30    31    1
     5    25    26   am
     6    26    27    2
     7    26    19    1
     8    19    20   ar
     9    20    21   ar
    10    21    22   ar
    11    22     1    1
    12     1     2    2
    13     2     3    1
    14     3     4    1
    15     4     5    1
    16     5     6    1
    17     6     7    1
    18     7     8    1
    19     3     9    1
    20     9    10    1
    21    10    11   ar
    22    11    12   ar
    23    12    13   ar
    24    13    14   ar
    25    14    15    1
    26    14    16   ar
    27    22    23   ar
    28    23    24   ar
    29    24    19   ar
    30    16     1    1
    31     8     3    1
    32    16    10   ar
    33     6    17    1
    34    15    18    1
@<TRIPOS>MOLECULE
*****
 31 34 0 0 0
SMALL
GASTEIGER

@<TRIPOS>ATOM
      1 C         140.2939  140.3590  162.4262 C.2     1  UNL1        0.0049
      2 C         140.3000  141.8576  162.4902 C.2     1  UNL1        0.0131
      3 C         139.6929  142.5605  163.6682 C.3     1  UNL1        0.1542
      4 C         140.3061  143.3562  162.5543 C.3     1  UNL1        0.0614
      5 C         140.3122  144.8548  162.6184 C.3     1  UNL1        0.0725
      6 N         139.7051  145.5576  163.7963 N.3     1  UNL1       -0.2972
      7 C         139.0919  144.7619  164.9102 C.3     1  UNL1        0.0725
      8 C         139.0858  143.2633  164.8461 C.3     1  UNL1        0.0614
      9 O         139.0797  141.7646  164.7821 O.3     1  UNL1       -0.4784
     10 C         139.0736  140.2660  164.7180 C.ar    1  UNL1        0.1415
     11 C         138.4604  139.4701  165.8319 C.ar    1  UNL1        0.0371
     12 C         138.4544  137.9716  165.7678 C.ar    1  UNL1        0.0062
     13 C         139.0614  137.2687  164.5899 C.ar    1  UNL1        0.0368
     14 C         139.6746  138.0645  163.4760 C.ar    1  UNL1        0.1365
     15 O         140.2817  137.3617  162.2981 O.3     1  UNL1       -0.5054
     16 C         139.6807  139.5632  163.5401 C.ar    1  UNL1        0.0674
     17 H         138.9722  146.1657  163.4308 H       1  UNL1        0.1233
     18 H         140.2779  136.4256  162.2581 H       1  UNL1        0.2922
     19 C         142.1152  138.2505  158.8925 C.ar    1  UNL1        0.0536
     20 C         140.6572  138.6031  158.8858 C.ar    1  UNL1        0.0045
     21 C         140.0502  139.3059  160.0637 C.ar    1  UNL1        0.0001
     22 C         140.9010  139.6562  161.2483 C.ar    1  UNL1       -0.0000
     23 C         142.3590  139.3036  161.2550 C.ar    1  UNL1        0.0001
     24 C         142.9661  138.6008  160.0771 C.ar    1  UNL1        0.0045
     25 N         143.2255  138.3412  156.5453 N.am    1  UNL1       -0.2761
     26 C         142.7223  137.5477  157.7145 C.2     1  UNL1        0.2490
     27 O         142.8261  136.0513  157.7059 O.2     1  UNL1       -0.2699
     28 C         142.9497  136.9607  154.3617 C.3     1  UNL1        0.0233
     29 C         143.8325  137.6384  155.3674 C.3     1  UNL1        0.0938
     30 C         143.1216  139.8377  156.5540 C.3     1  UNL1        0.0938
     31 C         144.2578  140.6653  157.0775 C.3     1  UNL1        0.0233
@<TRIPOS>BOND
     1    28    29    1
     2    29    25    1
     3    25    30    1
     4    30    31    1
     5    25    26   am
     6    26    27    2
     7    26    19    1
     8    19    20   ar
     9    20    21   ar
    10    21    22   ar
    11    22     1    1
    12     1     2    2
    13     2     3    1
    14     3     4    1
    15     4     5    1
    16     5     6    1
    17     6     7    1
    18     7     8    1
    19     3     9    1
    20     9    10    1
    21    10    11   ar
    22    11    12   ar
    23    12    13   ar
    24    13    14   ar
    25    14    15    1
    26    14    16   ar
    27    22    23   ar
    28    23    24   ar
    29    24    19   ar
    30    16     1    1
    31     8     3    1
    32    16    10   ar
    33     6    17    1
    34    15    18    1
@<TRIPOS>MOLECULE
*****
 31 34 0 0 0
SMALL
GASTEIGER

@<TRIPOS>ATOM
      1 C         141.9680  142.2013  162.5056 C.2     1  UNL1        0.0049
      2 C         142.5759  141.2753  161.4941 C.2     1  UNL1        0.0131
      3 C         142.5083  141.6113  160.0338 C.3     1  UNL1        0.1542
      4 C         143.1838  140.3494  160.4826 C.3     1  UNL1        0.0614
      5 C         143.7916  139.4236  159.4711 C.3     1  UNL1        0.0725
      6 N         143.7240  139.7595  158.0107 N.3     1  UNL1       -0.2972
      7 C         143.0485  141.0213  157.5619 C.3     1  UNL1        0.0725
      8 C         142.4407  141.9472  158.5734 C.3     1  UNL1        0.0614
      9 O         141.8328  142.8732  159.5850 O.3     1  UNL1       -0.4784
     10 C         141.2250  143.7991  160.5965 C.ar    1  UNL1        0.1415
     11 C         140.5494  145.0610  160.1477 C.ar    1  UNL1        0.0371
     12 C         139.9416  145.9869  161.1592 C.ar    1  UNL1        0.0062
     13 C         140.0092  145.6509  162.6195 C.ar    1  UNL1        0.0368
     14 C         140.6847  144.3891  163.0683 C.ar    1  UNL1        0.1365
     15 O         140.7523  144.0532  164.5287 O.3     1  UNL1       -0.5054
     16 C         141.2926  143.4631  162.0568 C.ar    1  UNL1        0.0674
     17 H         143.2395  138.9873  157.5531 H       1  UNL1        0.1233
     18 H         140.3726  144.6316  165.1605 H       1  UNL1        0.2922
     19 C         142.1709  141.1935  166.8866 C.ar    1  UNL1        0.0536
     20 C         141.0207  140.7048  166.0571 C.ar    1  UNL1        0.0045
     21 C         140.9531  141.0407  164.5967 C.ar    1  UNL1        0.0001
     22 C         142.0356  141.8654  163.9660 C.ar    1  UNL1       -0.0000
     23 C         143.1859  142.3541  164.7955 C.ar    1  UNL1        0.0001
     24 C         143.2535  142.0182  166.2558 C.ar    1  UNL1        0.0045
     25 N         141.5488  141.7332  169.3507 N.am    1  UNL1       -0.2761
     26 C         142.2385  140.8575  168.3470 C.2     1  UNL1        0.2490
     27 O         142.9958  139.6459  168.8035 O.2     1  UNL1       -0.2699
     28 C         140.6350  140.4303  171.4044 C.3     1  UNL1        0.0233
     29 C         141.6164  141.3972  170.8110 C.3     1  UNL1        0.0938
     30 C         140.7914  142.9448  168.8941 C.3     1  UNL1        0.0938
     31 C         140.3764  143.9885  169.8883 C.3     1  UNL1        0.0233
@<TRIPOS>BOND
     1    28    29    1
     2    29    25    1
     3    25    30    1
     4    30    31    1
     5    25    26   am
     6    26    27    2
     7    26    19    1
     8    19    20   ar
     9    20    21   ar
    10    21    22   ar
    11    22     1    1
    12     1     2    2
    13     2     3    1
    14     3     4    1
    15     4     5    1
    16     5     6    1
    17     6     7    1
    18     7     8    1
    19     3     9    1
    20     9    10    1
    21    10    11   ar
    22    11    12   ar
    23    12    13   ar
    24    13    14   ar
    25    14    15    1
    26    14    16   ar
    27    22    23   ar
    28    23    24   ar
    29    24    19   ar
    30    16     1    1
    31     8     3    1
    32    16    10   ar
    33     6    17    1
    34    15    18    1
@<TRIPOS>MOLECULE
*****
 31 34 0 0 0
SMALL
GASTEIGER

@<TRIPOS>ATOM
      1 C         141.9627  141.9603  162.0305 C.2     1  UNL1        0.0049
      2 C         141.5862  140.5181  162.1993 C.2     1  UNL1        0.0131
      3 C         141.9876  139.7787  163.4411 C.3     1  UNL1        0.1542
      4 C         141.2097  139.0761  162.3682 C.3     1  UNL1        0.0614
      5 C         140.8332  137.6340  162.5371 C.3     1  UNL1        0.0725
      6 N         141.2346  136.8945  163.7789 N.3     1  UNL1       -0.2972
      7 C         142.0125  137.5971  164.8518 C.3     1  UNL1        0.0725
      8 C         142.3890  139.0392  164.6829 C.3     1  UNL1        0.0614
      9 O         142.7655  140.4814  164.5141 O.3     1  UNL1       -0.4784
     10 C         143.1420  141.9234  164.3452 C.ar    1  UNL1        0.1415
     11 C         143.9200  142.6261  165.4181 C.ar    1  UNL1        0.0371
     12 C         144.2965  144.0682  165.2492 C.ar    1  UNL1        0.0062
     13 C         143.8951  144.8077  164.0074 C.ar    1  UNL1        0.0368
     14 C         143.1172  144.1051  162.9345 C.ar    1  UNL1        0.1365
     15 O         142.7158  144.8446  161.6927 O.3     1  UNL1       -0.5054
     16 C         142.7407  142.6629  163.1034 C.ar    1  UNL1        0.0674
     17 H         141.7988  136.0995  163.4788 H       1  UNL1        0.1233
     18 H         142.9510  145.7454  161.5872 H       1  UNL1        0.2922
     19 C         140.7586  144.1787  158.3051 C.ar    1  UNL1        0.0536
     20 C         139.8684  144.2012  159.5122 C.ar    1  UNL1        0.0045
     21 C         140.2698  143.4617  160.7539 C.ar    1  UNL1        0.0001
     22 C         141.5613  142.6998  160.7887 C.ar    1  UNL1       -0.0000
     23 C         142.4516  142.6773  159.5816 C.ar    1  UNL1        0.0001
     24 C         142.0502  143.4168  158.3398 C.ar    1  UNL1        0.0045
     25 N         139.4577  144.2627  156.0577 N.am    1  UNL1       -0.2761
     26 C         140.3572  144.9182  157.0633 C.2     1  UNL1        0.2490
     27 O         140.8553  146.3133  156.8271 O.2     1  UNL1       -0.2699
     28 C         137.9273  145.9887  154.8624 C.3     1  UNL1        0.0233
     29 C         139.0563  145.0022  154.8159 C.3     1  UNL1        0.0938
     30 C         138.9596  142.8676  156.2939 C.3     1  UNL1        0.0938
     31 C         137.6132  142.6474  156.9173 C.3     1  UNL1        0.0233
@<TRIPOS>BOND
     1    28    29    1
     2    29    25    1
     3    25    30    1
     4    30    31    1
     5    25    26   am
     6    26    27    2
     7    26    19    1
     8    19    20   ar
     9    20    21   ar
    10    21    22   ar
    11    22     1    1
    12     1     2    2
    13     2     3    1
    14     3     4    1
    15     4     5    1
    16     5     6    1
    17     6     7    1
    18     7     8    1
    19     3     9    1
    20     9    10    1
    21    10    11   ar
    22    11    12   ar
    23    12    13   ar
    24    13    14   ar
    25    14    15    1
    26    14    16   ar
    27    22    23   ar
    28    23    24   ar
    29    24    19   ar
    30    16     1    1
    31     8     3    1
    32    16    10   ar
    33     6    17    1
    34    15    18    1
@<TRIPOS>MOLECULE
*****
 31 34 0 0 0
SMALL
GASTEIGER

@<TRIPOS>ATOM
      1 C         141.8273  141.4727  161.7813 C.2     1  UNL1        0.0049
      2 C         140.5033  142.1190  162.0632 C.2     1  UNL1        0.0131
      3 C         140.3681  143.0861  163.2018 C.3     1  UNL1        0.1542
      4 C         139.1794  142.7652  162.3451 C.3     1  UNL1        0.0614
      5 C         137.8555  143.4115  162.6270 C.3     1  UNL1        0.0725
      6 N         137.7202  144.3786  163.7657 N.3     1  UNL1       -0.2972
      7 C         138.9089  144.6994  164.6224 C.3     1  UNL1        0.0725
      8 C         140.2329  144.0531  164.3405 C.3     1  UNL1        0.0614
      9 O         141.5569  143.4069  164.0586 O.3     1  UNL1       -0.4784
     10 C         142.8808  142.7606  163.7767 C.ar    1  UNL1        0.1415
     11 C         144.0696  143.0814  164.6334 C.ar    1  UNL1        0.0371
     12 C         145.3935  142.4352  164.3515 C.ar    1  UNL1        0.0062
     13 C         145.5287  141.4681  163.2128 C.ar    1  UNL1        0.0368
     14 C         144.3400  141.1472  162.3561 C.ar    1  UNL1        0.1365
     15 O         144.4753  140.1802  161.2175 O.3     1  UNL1       -0.5054
     16 C         143.0160  141.7935  162.6380 C.ar    1  UNL1        0.0674
     17 H         137.0025  144.0043  164.3862 H       1  UNL1        0.1233
     18 H         145.3023  139.7765  161.0414 H       1  UNL1        0.2922
     19 C         142.2330  138.5714  158.3654 C.ar    1  UNL1        0.0536
     20 C         142.4249  140.0401  158.1288 C.ar    1  UNL1        0.0045
     21 C         142.2897  141.0072  159.2675 C.ar    1  UNL1        0.0001
     22 C         141.9625  140.5056  160.6427 C.ar    1  UNL1       -0.0000
     23 C         141.7706  139.0368  160.8794 C.ar    1  UNL1        0.0001
     24 C         141.9058  138.0698  159.7407 C.ar    1  UNL1        0.0045
     25 N         141.1467  137.1286  156.4978 N.am    1  UNL1       -0.2761
     26 C         142.3682  137.6044  157.2268 C.2     1  UNL1        0.2490
     27 O         143.7250  137.1130  156.8172 O.2     1  UNL1       -0.2699
     28 C         141.6699  136.6561  153.9972 C.3     1  UNL1        0.0233
     29 C         141.2819  136.1615  155.3592 C.3     1  UNL1        0.0938
     30 C         139.7898  137.6199  156.9074 C.3     1  UNL1        0.0938
     31 C         139.2661  138.9163  156.3641 C.3     1  UNL1        0.0233
@<TRIPOS>BOND
     1    28    29    1
     2    29    25    1
     3    25    30    1
     4    30    31    1
     5    25    26   am
     6    26    27    2
     7    26    19    1
     8    19    20   ar
     9    20    21   ar
    10    21    22   ar
    11    22     1    1
    12     1     2    2
    13     2     3    1
    14     3     4    1
    15     4     5    1
    16     5     6    1
    17     6     7    1
    18     7     8    1
    19     3     9    1
    20     9    10    1
    21    10    11   ar
    22    11    12   ar
    23    12    13   ar
    24    13    14   ar
    25    14    15    1
    26    14    16   ar
    27    22    23   ar
    28    23    24   ar
    29    24    19   ar
    30    16     1    1
    31     8     3    1
    32    16    10   ar
    33     6    17    1
    34    15    18    1
@<TRIPOS>MOLECULE
*****
 31 34 0 0 0
SMALL
GASTEIGER

@<TRIPOS>ATOM
      1 C         141.7189  140.0648  163.5425 C.2     1  UNL1        0.0049
      2 C         140.5908  139.4927  164.3490 C.2     1  UNL1        0.0131
      3 C         140.3898  139.9269  165.7707 C.3     1  UNL1        0.1542
      4 C         139.4629  138.9208  165.1556 C.3     1  UNL1        0.0614
      5 C         138.3349  138.3488  165.9621 C.3     1  UNL1        0.0725
      6 N         138.1339  138.7830  167.3837 N.3     1  UNL1       -0.2972
      7 C         139.0609  139.7891  167.9989 C.3     1  UNL1        0.0725
      8 C         140.1888  140.3610  167.1924 C.3     1  UNL1        0.0614
      9 O         141.3169  140.9330  166.3858 O.3     1  UNL1       -0.4784
     10 C         142.4449  141.5050  165.5793 C.ar    1  UNL1        0.1415
     11 C         143.3719  142.5112  166.1945 C.ar    1  UNL1        0.0371
     12 C         144.4999  143.0831  165.3879 C.ar    1  UNL1        0.0062
     13 C         144.7009  142.6490  163.9663 C.ar    1  UNL1        0.0368
     14 C         143.7739  141.6429  163.3511 C.ar    1  UNL1        0.1365
     15 O         143.9749  141.2087  161.9295 O.3     1  UNL1       -0.5054
     16 C         142.6458  141.0709  164.1577 C.ar    1  UNL1        0.0674
     17 H         138.1883  137.9423  167.9588 H       1  UNL1        0.1233
     18 H         144.6795  141.5660  161.4257 H       1  UNL1        0.2922
     19 C         142.3219  138.7623  159.2775 C.ar    1  UNL1        0.0536
     20 C         143.0323  138.0465  160.3879 C.ar    1  UNL1        0.0045
     21 C         142.8313  138.4807  161.8095 C.ar    1  UNL1        0.0001
     22 C         141.9199  139.6306  162.1209 C.ar    1  UNL1       -0.0000
     23 C         141.2094  140.3465  161.0105 C.ar    1  UNL1        0.0001
     24 C         141.4104  139.9124  159.5888 C.ar    1  UNL1        0.0045
     25 N         143.4153  139.1218  156.9484 N.am    1  UNL1       -0.2761
     26 C         142.5229  138.3282  157.8559 C.2     1  UNL1        0.2490
     27 O         141.8314  137.1003  157.3417 O.2     1  UNL1       -0.2699
     28 C         142.6072  139.0569  154.4800 C.3     1  UNL1        0.0233
     29 C         143.6163  138.6877  155.5267 C.3     1  UNL1        0.0938
     30 C         144.1068  140.3497  157.4625 C.3     1  UNL1        0.0938
     31 C         145.2720  140.9239  156.7124 C.3     1  UNL1        0.0233
@<TRIPOS>BOND
     1    28    29    1
     2    29    25    1
     3    25    30    1
     4    30    31    1
     5    25    26   am
     6    26    27    2
     7    26    19    1
     8    19    20   ar
     9    20    21   ar
    10    21    22   ar
    11    22     1    1
    12     1     2    2
    13     2     3    1
    14     3     4    1
    15     4     5    1
    16     5     6    1
    17     6     7    1
    18     7     8    1
    19     3     9    1
    20     9    10    1
    21    10    11   ar
    22    11    12   ar
    23    12    13   ar
    24    13    14   ar
    25    14    15    1
    26    14    16   ar
    27    22    23   ar
    28    23    24   ar
    29    24    19   ar
    30    16     1    1
    31     8     3    1
    32    16    10   ar
    33     6    17    1
    34    15    18    1
