@<TRIPOS>MOLECULE
*****
 27 30 0 0 0
SMALL
GASTEIGER

@<TRIPOS>ATOM
      1 C         144.5294  141.3474  161.4337 C.3     1  UNL1        0.1205
      2 N         143.3811  141.9953  162.1489 N.am    1  UNL1       -0.2494
      3 C         142.7066  143.1165  161.4154 C.2     1  UNL1        0.2558
      4 O         143.2697  143.4416  160.0637 O.2     1  UNL1       -0.2695
      5 C         141.5436  143.9557  161.8549 C.ar    1  UNL1        0.0884
      6 C         141.1791  144.9742  160.8158 C.ar    1  UNL1        0.0076
      7 C         140.0387  145.9180  161.0584 C.ar    1  UNL1        0.0003
      8 C         139.2628  145.8431  162.3399 C.ar    1  UNL1        0.0031
      9 C         139.6273  144.8246  163.3790 C.ar    1  UNL1        0.0376
     10 C         140.7677  143.8808  163.1364 C.ar    1  UNL1        0.1497
     11 O         140.9632  142.9484  164.2950 O.3     1  UNL1       -0.4519
     12 C         141.9829  141.8604  164.4583 C.ar    1  UNL1        0.1631
     13 C         141.8313  141.1604  165.7761 C.ar    1  UNL1        0.0728
     14 C         142.7557  140.0362  166.1390 C.ar    1  UNL1        0.1316
     15 N         143.8317  139.6120  165.1839 N.ar    1  UNL1       -0.2279
     16 C         143.9834  140.3121  163.8659 C.ar    1  UNL1        0.1182
     17 C         143.0590  141.4363  163.5031 C.ar    1  UNL1        0.1084
     18 N         142.6040  139.3362  167.4569 N.pl3   1  UNL1       -0.3196
     19 H         142.8804  138.3958  167.5495 H       1  UNL1        0.1481
     20 C         142.0314  140.0689  168.6338 C.3     1  UNL1        0.0705
     21 C         142.9242  140.8999  169.5068 C.3     1  UNL1        0.0220
     22 C         142.3515  141.6327  170.6837 C.3     1  UNL1        0.0309
     23 C         140.8859  141.5343  170.9876 C.3     1  UNL1        0.1106
     24 O         140.3132  142.2670  172.1646 O.3     1  UNL1       -0.3845
     25 C         139.9930  140.7032  170.1146 C.3     1  UNL1        0.0309
     26 C         140.5657  139.9705  168.9377 C.3     1  UNL1        0.0220
     27 H         141.0200  142.7521  172.6185 H       1  UNL1        0.2103
@<TRIPOS>BOND
     1     1     2    1
     2     2     3   am
     3     3     4    2
     4     3     5    1
     5     5     6   ar
     6     6     7   ar
     7     7     8   ar
     8     8     9   ar
     9     9    10   ar
    10    10    11    1
    11    11    12    1
    12    12    13   ar
    13    13    14   ar
    14    14    18    1
    15    20    18    1
    16    20    21    1
    17    21    22    1
    18    22    23    1
    19    23    24    1
    20    23    25    1
    21    25    26    1
    22    14    15   ar
    23    15    16   ar
    24    16    17   ar
    25    17     2    1
    26    10     5   ar
    27    17    12   ar
    28    26    20    1
    29    18    19    1
    30    24    27    1
@<TRIPOS>MOLECULE
*****
 27 30 0 0 0
SMALL
GASTEIGER

@<TRIPOS>ATOM
      1 C         138.0812  138.5299  162.0831 C.3     1  UNL1        0.1205
      2 N         138.6799  139.8455  162.4836 N.am    1  UNL1       -0.2494
      3 C         138.9049  140.8243  161.3694 C.2     1  UNL1        0.2558
      4 O         138.5015  140.3578  160.0020 O.2     1  UNL1       -0.2695
      5 C         139.4801  142.2078  161.4416 C.ar    1  UNL1        0.0884
      6 C         139.5311  142.8514  160.0877 C.ar    1  UNL1        0.0076
      7 C         140.0744  144.2416  159.9382 C.ar    1  UNL1        0.0003
      8 C         140.5665  144.9880  161.1426 C.ar    1  UNL1        0.0031
      9 C         140.5154  144.3444  162.4965 C.ar    1  UNL1        0.0376
     10 C         139.9722  142.9543  162.6460 C.ar    1  UNL1        0.1497
     11 O         140.0107  142.5016  164.0756 O.3     1  UNL1       -0.4519
     12 C         139.5667  141.1907  164.6539 C.ar    1  UNL1        0.1631
     13 C         139.7800  141.1460  166.1379 C.ar    1  UNL1        0.0728
     14 C         139.4011  139.9192  166.9135 C.ar    1  UNL1        0.1316
     15 N         138.8088  138.7372  166.2050 N.ar    1  UNL1       -0.2279
     16 C         138.5955  138.7819  164.7209 C.ar    1  UNL1        0.1182
     17 C         138.9744  140.0087  163.9453 C.ar    1  UNL1        0.1084
     18 N         139.6144  139.8746  168.3975 N.pl3   1  UNL1       -0.3196
     19 H         139.1284  139.2164  168.9451 H       1  UNL1        0.1481
     20 C         140.5682  140.8327  169.0473 C.3     1  UNL1        0.0705
     21 C         140.0621  142.1252  169.6157 C.3     1  UNL1        0.0220
     22 C         141.0160  143.0833  170.2655 C.3     1  UNL1        0.0309
     23 C         142.4759  142.7489  170.3469 C.3     1  UNL1        0.1106
     24 O         143.4297  143.7070  170.9967 O.3     1  UNL1       -0.3845
     25 C         142.9820  141.4563  169.7785 C.3     1  UNL1        0.0309
     26 C         142.0282  140.4982  169.1287 C.3     1  UNL1        0.0220
     27 H         142.9432  144.4863  171.3082 H       1  UNL1        0.2103
@<TRIPOS>BOND
     1     1     2    1
     2     2     3   am
     3     3     4    2
     4     3     5    1
     5     5     6   ar
     6     6     7   ar
     7     7     8   ar
     8     8     9   ar
     9     9    10   ar
    10    10    11    1
    11    11    12    1
    12    12    13   ar
    13    13    14   ar
    14    14    18    1
    15    20    18    1
    16    20    21    1
    17    21    22    1
    18    22    23    1
    19    23    24    1
    20    23    25    1
    21    25    26    1
    22    14    15   ar
    23    15    16   ar
    24    16    17   ar
    25    17     2    1
    26    10     5   ar
    27    17    12   ar
    28    26    20    1
    29    18    19    1
    30    24    27    1
@<TRIPOS>MOLECULE
*****
 27 30 0 0 0
SMALL
GASTEIGER

@<TRIPOS>ATOM
      1 C         139.9844  146.0726  161.5496 C.3     1  UNL1        0.1205
      2 N         140.8141  144.8256  161.4693 N.am    1  UNL1       -0.2494
      3 C         141.5490  144.6147  160.1788 C.2     1  UNL1        0.2558
      4 O         141.3570  145.6789  159.1392 O.2     1  UNL1       -0.2695
      5 C         142.4505  143.4805  159.7903 C.ar    1  UNL1        0.0884
      6 C         142.9856  143.6572  158.4002 C.ar    1  UNL1        0.0076
      7 C         143.9100  142.6302  157.8164 C.ar    1  UNL1        0.0003
      8 C         144.2992  141.4267  158.6226 C.ar    1  UNL1        0.0031
      9 C         143.7641  141.2501  160.0127 C.ar    1  UNL1        0.0376
     10 C         142.8398  142.2770  160.5965 C.ar    1  UNL1        0.1497
     11 O         142.4236  141.9105  161.9903 O.3     1  UNL1       -0.4519
     12 C         141.5155  142.6569  162.9221 C.ar    1  UNL1        0.1631
     13 C         141.3624  141.9390  164.2302 C.ar    1  UNL1        0.0728
     14 C         140.4930  142.5186  165.3065 C.ar    1  UNL1        0.1316
     15 N         139.7767  143.8159  165.0746 N.ar    1  UNL1       -0.2279
     16 C         139.9298  144.5337  163.7664 C.ar    1  UNL1        0.1182
     17 C         140.7992  143.9542  162.6902 C.ar    1  UNL1        0.1084
     18 N         140.3400  141.8006  166.6146 N.pl3   1  UNL1       -0.3196
     19 H         139.7552  141.0111  166.6773 H       1  UNL1        0.1481
     20 C         141.0780  142.2855  167.8271 C.3     1  UNL1        0.0705
     21 C         142.5224  141.9292  168.0182 C.3     1  UNL1        0.0220
     22 C         143.2604  142.4142  169.2308 C.3     1  UNL1        0.0309
     23 C         142.5539  143.2553  170.2522 C.3     1  UNL1        0.1106
     24 O         143.2919  143.7402  171.4648 O.3     1  UNL1       -0.3845
     25 C         141.1094  143.6116  170.0610 C.3     1  UNL1        0.0309
     26 C         140.3714  143.1267  168.8485 C.3     1  UNL1        0.0220
     27 H         144.2081  143.4232  171.4339 H       1  UNL1        0.2103
@<TRIPOS>BOND
     1     1     2    1
     2     2     3   am
     3     3     4    2
     4     3     5    1
     5     5     6   ar
     6     6     7   ar
     7     7     8   ar
     8     8     9   ar
     9     9    10   ar
    10    10    11    1
    11    11    12    1
    12    12    13   ar
    13    13    14   ar
    14    14    18    1
    15    20    18    1
    16    20    21    1
    17    21    22    1
    18    22    23    1
    19    23    24    1
    20    23    25    1
    21    25    26    1
    22    14    15   ar
    23    15    16   ar
    24    16    17   ar
    25    17     2    1
    26    10     5   ar
    27    17    12   ar
    28    26    20    1
    29    18    19    1
    30    24    27    1
@<TRIPOS>MOLECULE
*****
 27 30 0 0 0
SMALL
GASTEIGER

@<TRIPOS>ATOM
      1 C         144.5446  142.6682  161.3402 C.3     1  UNL1        0.1205
      2 N         143.4443  141.8236  161.9110 N.am    1  UNL1       -0.2494
      3 C         142.6613  141.0167  160.9180 C.2     1  UNL1        0.2558
      4 O         143.0824  141.1611  159.4856 O.2     1  UNL1       -0.2695
      5 C         141.5131  140.0845  161.1680 C.ar    1  UNL1        0.0884
      6 C         141.0139  139.4752  159.8915 C.ar    1  UNL1        0.0076
      7 C         139.8657  138.5104  159.9197 C.ar    1  UNL1        0.0003
      8 C         139.2168  138.1548  161.2245 C.ar    1  UNL1        0.0031
      9 C         139.7160  138.7641  162.5010 C.ar    1  UNL1        0.0376
     10 C         140.8641  139.7289  162.4728 C.ar    1  UNL1        0.1497
     11 O         141.2032  140.2177  163.8498 O.3     1  UNL1       -0.4519
     12 C         142.2749  141.1829  164.2622 C.ar    1  UNL1        0.1631
     13 C         142.2745  141.4010  165.7462 C.ar    1  UNL1        0.0728
     14 C         143.2715  142.3339  166.3674 C.ar    1  UNL1        0.1316
     15 N         144.2688  143.0485  165.5046 N.ar    1  UNL1       -0.2279
     16 C         144.2692  142.8304  164.0205 C.ar    1  UNL1        0.1182
     17 C         143.2722  141.8975  163.3993 C.ar    1  UNL1        0.1084
     18 N         143.2710  142.5520  167.8514 N.pl3   1  UNL1       -0.3196
     19 H         143.8683  143.2254  168.2502 H       1  UNL1        0.1481
     20 C         142.3607  141.7440  168.7280 C.3     1  UNL1        0.0705
     21 C         141.0344  142.3036  169.1498 C.3     1  UNL1        0.0220
     22 C         140.1240  141.4956  170.0264 C.3     1  UNL1        0.0309
     23 C         140.5399  140.1281  170.4811 C.3     1  UNL1        0.1106
     24 O         139.6295  139.3202  171.3578 O.3     1  UNL1       -0.3845
     25 C         141.8662  139.5685  170.0594 C.3     1  UNL1        0.0309
     26 C         142.7765  140.3764  169.1828 C.3     1  UNL1        0.0220
     27 H         138.8200  139.8244  171.5351 H       1  UNL1        0.2103
@<TRIPOS>BOND
     1     1     2    1
     2     2     3   am
     3     3     4    2
     4     3     5    1
     5     5     6   ar
     6     6     7   ar
     7     7     8   ar
     8     8     9   ar
     9     9    10   ar
    10    10    11    1
    11    11    12    1
    12    12    13   ar
    13    13    14   ar
    14    14    18    1
    15    20    18    1
    16    20    21    1
    17    21    22    1
    18    22    23    1
    19    23    24    1
    20    23    25    1
    21    25    26    1
    22    14    15   ar
    23    15    16   ar
    24    16    17   ar
    25    17     2    1
    26    10     5   ar
    27    17    12   ar
    28    26    20    1
    29    18    19    1
    30    24    27    1
@<TRIPOS>MOLECULE
*****
 27 30 0 0 0
SMALL
GASTEIGER

@<TRIPOS>ATOM
      1 C         137.7491  138.3823  161.7697 C.3     1  UNL1        0.1205
      2 N         138.5520  139.6488  161.7385 N.am    1  UNL1       -0.2494
      3 C         138.4514  140.4524  160.4759 C.2     1  UNL1        0.2558
      4 O         137.5611  139.8830  159.4114 O.2     1  UNL1       -0.2695
      5 C         139.1233  141.7500  160.1370 C.ar    1  UNL1        0.0884
      6 C         138.7502  142.2174  158.7614 C.ar    1  UNL1        0.0076
      7 C         139.3155  143.4994  158.2259 C.ar    1  UNL1        0.0003
      8 C         140.2540  144.3140  159.0660 C.ar    1  UNL1        0.0031
      9 C         140.6272  143.8465  160.4416 C.ar    1  UNL1        0.0376
     10 C         140.0618  142.5645  160.9771 C.ar    1  UNL1        0.1497
     11 O         140.5602  142.2826  162.3635 O.3     1  UNL1       -0.4519
     12 C         140.2432  141.1167  163.2523 C.ar    1  UNL1        0.1631
     13 C         140.9560  141.2207  164.5680 C.ar    1  UNL1        0.0728
     14 C         140.7752  140.1525  165.6055 C.ar    1  UNL1        0.1316
     15 N         139.8815  138.9805  165.3274 N.ar    1  UNL1       -0.2279
     16 C         139.1686  138.8764  164.0117 C.ar    1  UNL1        0.1182
     17 C         139.3494  139.9445  162.9742 C.ar    1  UNL1        0.1084
     18 N         141.4881  140.2566  166.9211 N.pl3   1  UNL1       -0.3196
     19 H         142.3651  139.8256  167.0412 H       1  UNL1        0.1481
     20 C         140.8651  141.0174  168.0537 C.3     1  UNL1        0.0705
     21 C         141.1927  142.4675  168.2532 C.3     1  UNL1        0.0220
     22 C         140.5696  143.2283  169.3859 C.3     1  UNL1        0.0309
     23 C         139.6188  142.5390  170.3190 C.3     1  UNL1        0.1106
     24 O         138.9957  143.2998  171.4517 O.3     1  UNL1       -0.3845
     25 C         139.2911  141.0888  170.1196 C.3     1  UNL1        0.0309
     26 C         139.9142  140.3281  168.9869 C.3     1  UNL1        0.0220
     27 H         139.3114  144.2169  171.4376 H       1  UNL1        0.2103
@<TRIPOS>BOND
     1     1     2    1
     2     2     3   am
     3     3     4    2
     4     3     5    1
     5     5     6   ar
     6     6     7   ar
     7     7     8   ar
     8     8     9   ar
     9     9    10   ar
    10    10    11    1
    11    11    12    1
    12    12    13   ar
    13    13    14   ar
    14    14    18    1
    15    20    18    1
    16    20    21    1
    17    21    22    1
    18    22    23    1
    19    23    24    1
    20    23    25    1
    21    25    26    1
    22    14    15   ar
    23    15    16   ar
    24    16    17   ar
    25    17     2    1
    26    10     5   ar
    27    17    12   ar
    28    26    20    1
    29    18    19    1
    30    24    27    1
@<TRIPOS>MOLECULE
*****
 27 30 0 0 0
SMALL
GASTEIGER

@<TRIPOS>ATOM
      1 C         140.3529  145.0201  163.0238 C.3     1  UNL1        0.1205
      2 N         139.8097  143.7287  162.4881 N.am    1  UNL1       -0.2494
      3 C         139.5425  143.6972  161.0124 C.2     1  UNL1        0.2558
      4 O         139.8538  144.9615  160.2676 O.2     1  UNL1       -0.2695
      5 C         139.0051  142.5688  160.1830 C.ar    1  UNL1        0.0884
      6 C         138.8895  142.9569  158.7387 C.ar    1  UNL1        0.0076
      7 C         138.3711  141.9693  157.7359 C.ar    1  UNL1        0.0003
      8 C         137.9682  140.5935  158.1774 C.ar    1  UNL1        0.0031
      9 C         138.0838  140.2054  159.6216 C.ar    1  UNL1        0.0376
     10 C         138.6022  141.1930  160.6244 C.ar    1  UNL1        0.1497
     11 O         138.6372  140.6059  162.0043 O.3     1  UNL1       -0.4519
     12 C         139.0837  141.2495  163.2836 C.ar    1  UNL1        0.1631
     13 C         138.9571  140.3078  164.4442 C.ar    1  UNL1        0.0728
     14 C         139.3522  140.7558  165.8201 C.ar    1  UNL1        0.1316
     15 N         139.8740  142.1455  166.0354 N.ar    1  UNL1       -0.2279
     16 C         140.0007  143.0873  164.8747 C.ar    1  UNL1        0.1182
     17 C         139.6055  142.6393  163.4988 C.ar    1  UNL1        0.1084
     18 N         139.2255  139.8140  166.9807 N.pl3   1  UNL1       -0.3196
     19 H         138.6079  139.0491  166.9287 H       1  UNL1        0.1481
     20 C         140.0396  140.0377  168.2205 C.3     1  UNL1        0.0705
     21 C         141.5146  139.7651  168.2085 C.3     1  UNL1        0.0220
     22 C         142.3287  139.9888  169.4483 C.3     1  UNL1        0.0309
     23 C         141.6679  140.4850  170.7001 C.3     1  UNL1        0.1106
     24 O         142.4821  140.7087  171.9400 O.3     1  UNL1       -0.3845
     25 C         140.1929  140.7576  170.7121 C.3     1  UNL1        0.0309
     26 C         139.3788  140.5339  169.4723 C.3     1  UNL1        0.0220
     27 H         143.4094  140.4862  171.7623 H       1  UNL1        0.2103
@<TRIPOS>BOND
     1     1     2    1
     2     2     3   am
     3     3     4    2
     4     3     5    1
     5     5     6   ar
     6     6     7   ar
     7     7     8   ar
     8     8     9   ar
     9     9    10   ar
    10    10    11    1
    11    11    12    1
    12    12    13   ar
    13    13    14   ar
    14    14    18    1
    15    20    18    1
    16    20    21    1
    17    21    22    1
    18    22    23    1
    19    23    24    1
    20    23    25    1
    21    25    26    1
    22    14    15   ar
    23    15    16   ar
    24    16    17   ar
    25    17     2    1
    26    10     5   ar
    27    17    12   ar
    28    26    20    1
    29    18    19    1
    30    24    27    1
@<TRIPOS>MOLECULE
*****
 27 30 0 0 0
SMALL
GASTEIGER

@<TRIPOS>ATOM
      1 C         137.9589  139.4089  162.4444 C.3     1  UNL1        0.1205
      2 N         138.5933  140.4112  163.3625 N.am    1  UNL1       -0.2494
      3 C         138.7845  139.9644  164.7815 C.2     1  UNL1        0.2558
      4 O         138.3159  138.5744  165.0949 O.2     1  UNL1       -0.2695
      5 C         139.3822  140.7238  165.9288 C.ar    1  UNL1        0.0884
      6 C         139.3844  139.9054  167.1859 C.ar    1  UNL1        0.0076
      7 C         139.9408  140.4809  168.4544 C.ar    1  UNL1        0.0003
      8 C         140.4951  141.8747  168.4658 C.ar    1  UNL1        0.0031
      9 C         140.4929  142.6930  167.2087 C.ar    1  UNL1        0.0376
     10 C         139.9365  142.1176  165.9402 C.ar    1  UNL1        0.1497
     11 O         140.0299  143.0962  164.8072 O.3     1  UNL1       -0.4519
     12 C         139.5921  142.9228  163.3831 C.ar    1  UNL1        0.1631
     13 C         139.8683  144.1534  162.5711 C.ar    1  UNL1        0.0728
     14 C         139.5053  144.1890  161.1161 C.ar    1  UNL1        0.1316
     15 N         138.8660  142.9941  160.4731 N.ar    1  UNL1       -0.2279
     16 C         138.5897  141.7635  161.2851 C.ar    1  UNL1        0.1182
     17 C         138.9528  141.7278  162.7401 C.ar    1  UNL1        0.1084
     18 N         139.7816  145.4196  160.3042 N.pl3   1  UNL1       -0.3196
     19 H         139.4245  146.2904  160.5931 H       1  UNL1        0.1481
     20 C         140.6019  145.3236  159.0521 C.3     1  UNL1        0.0705
     21 C         140.2175  146.1203  157.8407 C.3     1  UNL1        0.0220
     22 C         141.0378  146.0243  156.5886 C.3     1  UNL1        0.0309
     23 C         142.2425  145.1316  156.5479 C.3     1  UNL1        0.1106
     24 O         143.0628  145.0356  155.2956 O.3     1  UNL1       -0.3845
     25 C         142.6269  144.3349  157.7592 C.3     1  UNL1        0.0309
     26 C         141.8066  144.4309  159.0113 C.3     1  UNL1        0.0220
     27 H         142.6803  145.6096  154.6137 H       1  UNL1        0.2103
@<TRIPOS>BOND
     1     1     2    1
     2     2     3   am
     3     3     4    2
     4     3     5    1
     5     5     6   ar
     6     6     7   ar
     7     7     8   ar
     8     8     9   ar
     9     9    10   ar
    10    10    11    1
    11    11    12    1
    12    12    13   ar
    13    13    14   ar
    14    14    18    1
    15    20    18    1
    16    20    21    1
    17    21    22    1
    18    22    23    1
    19    23    24    1
    20    23    25    1
    21    25    26    1
    22    14    15   ar
    23    15    16   ar
    24    16    17   ar
    25    17     2    1
    26    10     5   ar
    27    17    12   ar
    28    26    20    1
    29    18    19    1
    30    24    27    1
@<TRIPOS>MOLECULE
*****
 27 30 0 0 0
SMALL
GASTEIGER

@<TRIPOS>ATOM
      1 C         138.6042  137.9721  165.7467 C.3     1  UNL1        0.1205
      2 N         139.6455  138.9294  166.2457 N.am    1  UNL1       -0.2494
      3 C         139.3367  139.6063  167.5482 C.2     1  UNL1        0.2558
      4 O         138.0273  139.2362  168.1795 O.2     1  UNL1       -0.2695
      5 C         140.1640  140.6042  168.3030 C.ar    1  UNL1        0.0884
      6 C         139.4843  141.0338  169.5692 C.ar    1  UNL1        0.0076
      7 C         140.1451  142.0310  170.4740 C.ar    1  UNL1        0.0003
      8 C         141.4857  142.5987  170.1127 C.ar    1  UNL1        0.0031
      9 C         142.1655  142.1691  168.8464 C.ar    1  UNL1        0.0376
     10 C         141.5046  141.1719  167.9416 C.ar    1  UNL1        0.1497
     11 O         142.3489  140.8817  166.7362 O.3     1  UNL1       -0.4519
     12 C         142.0613  139.9523  165.5945 C.ar    1  UNL1        0.1631
     13 C         143.1750  139.9572  164.5898 C.ar    1  UNL1        0.0728
     14 C         143.0857  139.0933  163.3668 C.ar    1  UNL1        0.1316
     15 N         141.8826  138.2245  163.1485 N.ar    1  UNL1       -0.2279
     16 C         140.7688  138.2195  164.1533 C.ar    1  UNL1        0.1182
     17 C         140.8581  139.0834  165.3763 C.ar    1  UNL1        0.1084
     18 N         144.1995  139.0983  162.3622 N.pl3   1  UNL1       -0.3196
     19 H         144.9172  138.4268  162.4196 H       1  UNL1        0.1481
     20 C         144.2200  140.1263  161.2701 C.3     1  UNL1        0.0705
     21 C         144.5904  141.5457  161.5831 C.3     1  UNL1        0.0220
     22 C         144.6109  142.5738  160.4909 C.3     1  UNL1        0.0309
     23 C         144.2609  142.1824  159.0859 C.3     1  UNL1        0.1106
     24 O         144.2814  143.2105  157.9938 O.3     1  UNL1       -0.3845
     25 C         143.8904  140.7629  158.7729 C.3     1  UNL1        0.0309
     26 C         143.8700  139.7349  159.8650 C.3     1  UNL1        0.0220
     27 H         144.5394  144.0695  158.3632 H       1  UNL1        0.2103
@<TRIPOS>BOND
     1     1     2    1
     2     2     3   am
     3     3     4    2
     4     3     5    1
     5     5     6   ar
     6     6     7   ar
     7     7     8   ar
     8     8     9   ar
     9     9    10   ar
    10    10    11    1
    11    11    12    1
    12    12    13   ar
    13    13    14   ar
    14    14    18    1
    15    20    18    1
    16    20    21    1
    17    21    22    1
    18    22    23    1
    19    23    24    1
    20    23    25    1
    21    25    26    1
    22    14    15   ar
    23    15    16   ar
    24    16    17   ar
    25    17     2    1
    26    10     5   ar
    27    17    12   ar
    28    26    20    1
    29    18    19    1
    30    24    27    1
@<TRIPOS>MOLECULE
*****
 27 30 0 0 0
SMALL
GASTEIGER

@<TRIPOS>ATOM
      1 C         137.7614  138.8276  167.0767 C.3     1  UNL1        0.1205
      2 N         139.0231  139.6339  166.9882 N.am    1  UNL1       -0.2494
      3 C         139.6220  140.0515  168.2985 C.2     1  UNL1        0.2558
      4 O         138.8800  139.6074  169.5241 O.2     1  UNL1       -0.2695
      5 C         140.8649  140.8543  168.5454 C.ar    1  UNL1        0.0884
      6 C         141.1093  141.0487  170.0125 C.ar    1  UNL1        0.0076
      7 C         142.3046  141.8267  170.4769 C.ar    1  UNL1        0.0003
      8 C         143.2555  142.4103  169.4743 C.ar    1  UNL1        0.0031
      9 C         143.0111  142.2159  168.0073 C.ar    1  UNL1        0.0376
     10 C         141.8158  141.4379  167.5428 C.ar    1  UNL1        0.1497
     11 O         141.7587  141.3628  166.0457 O.3     1  UNL1       -0.4519
     12 C         140.7367  140.6856  165.1815 C.ar    1  UNL1        0.1631
     13 C         141.0540  140.8514  163.7249 C.ar    1  UNL1        0.0728
     14 C         140.1540  140.2479  162.6877 C.ar    1  UNL1        0.1316
     15 N         138.9366  139.4786  163.1071 N.ar    1  UNL1       -0.2279
     16 C         138.6192  139.3127  164.5638 C.ar    1  UNL1        0.1182
     17 C         139.5192  139.9161  165.6010 C.ar    1  UNL1        0.1084
     18 N         140.4714  140.4139  161.2311 N.pl3   1  UNL1       -0.3196
     19 H         140.4300  139.6378  160.6268 H       1  UNL1        0.1481
     20 C         140.8521  141.7622  160.6953 C.3     1  UNL1        0.0705
     21 C         142.2690  142.0332  160.2845 C.3     1  UNL1        0.0220
     22 C         142.6497  143.3816  159.7486 C.3     1  UNL1        0.0309
     23 C         141.6134  144.4588  159.6236 C.3     1  UNL1        0.1106
     24 O         141.9941  145.8072  159.0878 O.3     1  UNL1       -0.3845
     25 C         140.1964  144.1877  160.0345 C.3     1  UNL1        0.0309
     26 C         139.8158  142.8395  160.5703 C.3     1  UNL1        0.0220
     27 H         142.9397  145.8140  158.8717 H       1  UNL1        0.2103
@<TRIPOS>BOND
     1     1     2    1
     2     2     3   am
     3     3     4    2
     4     3     5    1
     5     5     6   ar
     6     6     7   ar
     7     7     8   ar
     8     8     9   ar
     9     9    10   ar
    10    10    11    1
    11    11    12    1
    12    12    13   ar
    13    13    14   ar
    14    14    18    1
    15    20    18    1
    16    20    21    1
    17    21    22    1
    18    22    23    1
    19    23    24    1
    20    23    25    1
    21    25    26    1
    22    14    15   ar
    23    15    16   ar
    24    16    17   ar
    25    17     2    1
    26    10     5   ar
    27    17    12   ar
    28    26    20    1
    29    18    19    1
    30    24    27    1
