@<TRIPOS>MOLECULE
*****
 25 28 0 0 0
SMALL
GASTEIGER

@<TRIPOS>ATOM
      1 N         139.5693  139.1308  171.7710 N.pl3   1  UNL1       -0.3375
      2 C         140.0439  139.7750  170.5023 C.ar    1  UNL1        0.1567
      3 N         139.2411  139.9472  169.2469 N.ar    1  UNL1       -0.2245
      4 C         140.1058  140.6387  168.2350 C.ar    1  UNL1        0.0889
      5 C         139.8482  141.0691  166.8213 C.ar    1  UNL1        0.0152
      6 C         140.9280  141.7546  166.0374 C.ar    1  UNL1       -0.0228
      7 C         142.2651  142.0097  166.6673 C.ar    1  UNL1       -0.0238
      8 C         142.5227  141.5794  168.0809 C.ar    1  UNL1        0.0036
      9 C         141.4430  140.8939  168.8648 C.ar    1  UNL1        0.0494
     10 S         141.4048  140.3601  170.2661 S.2     1  UNL1       -0.0520
     11 C         143.4700  142.6725  166.0681 C.3     1  UNL1        0.0475
     12 C         143.6352  143.2438  164.6909 C.3     1  UNL1        0.0984
     13 N         142.6363  143.2934  163.5731 N.am    1  UNL1       -0.2754
     14 C         143.1110  143.9376  162.3043 C.2     1  UNL1        0.2490
     15 O         144.5064  144.4807  162.2154 O.2     1  UNL1       -0.2699
     16 C         141.2256  142.7840  163.5560 C.3     1  UNL1        0.0984
     17 C         140.4653  142.0991  164.6528 C.3     1  UNL1        0.0476
     18 H         138.6534  138.7743  171.8294 H       1  UNL1        0.1442
     19 H         140.1736  139.0644  172.5454 H       1  UNL1        0.1442
     20 C         142.1902  144.0388  161.1244 C.ar    1  UNL1        0.0536
     21 C         142.2234  142.9874  160.0550 C.ar    1  UNL1        0.0045
     22 C         141.3027  143.0885  158.8751 C.ar    1  UNL1        0.0001
     23 C         140.3489  144.2409  158.7647 C.ar    1  UNL1        0.0000
     24 C         140.3158  145.2923  159.8341 C.ar    1  UNL1        0.0001
     25 C         141.2364  145.1912  161.0139 C.ar    1  UNL1        0.0045
@<TRIPOS>BOND
     1     1     2    1
     2     2     3   ar
     3     3     4   ar
     4     4     5   ar
     5     5     6   ar
     6     6     7   ar
     7     7     8   ar
     8     8     9   ar
     9     9    10   ar
    10     7    11    1
    11    11    12    1
    12    12    13    1
    13    13    14   am
    14    14    15    2
    15    14    20    1
    16    20    21   ar
    17    21    22   ar
    18    22    23   ar
    19    23    24   ar
    20    24    25   ar
    21    13    16    1
    22    16    17    1
    23    10     2   ar
    24    25    20   ar
    25     9     4   ar
    26    17     6    1
    27     1    18    1
    28     1    19    1
@<TRIPOS>MOLECULE
*****
 25 28 0 0 0
SMALL
GASTEIGER

@<TRIPOS>ATOM
      1 N         143.8421  139.5130  171.5105 N.pl3   1  UNL1       -0.3375
      2 C         143.1142  139.9893  170.2885 C.ar    1  UNL1        0.1567
      3 N         142.9437  139.2242  169.0095 N.ar    1  UNL1       -0.2245
      4 C         142.1532  140.0764  168.0615 C.ar    1  UNL1        0.0889
      5 C         141.6819  139.8430  166.6567 C.ar    1  UNL1        0.0152
      6 C         140.8925  140.9014  165.9448 C.ar    1  UNL1       -0.0228
      7 C         140.5745  142.1931  166.6378 C.ar    1  UNL1       -0.0238
      8 C         141.0458  142.4266  168.0425 C.ar    1  UNL1        0.0036
      9 C         141.8351  141.3682  168.7544 C.ar    1  UNL1        0.0494
     10 S         142.4291  141.3143  170.1308 S.2     1  UNL1       -0.0520
     11 C         139.8071  143.3710  166.1144 C.3     1  UNL1        0.0475
     12 C         139.1683  143.5479  164.7687 C.3     1  UNL1        0.0984
     13 N         139.1391  142.5907  163.6143 N.am    1  UNL1       -0.2754
     14 C         138.4113  143.0670  162.3923 C.2     1  UNL1        0.2490
     15 O         137.7719  144.4239  162.3813 O.2     1  UNL1       -0.2699
     16 C         139.7414  141.2202  163.5202 C.3     1  UNL1        0.0984
     17 C         140.5218  140.4684  164.5574 C.3     1  UNL1        0.0476
     18 H         144.2617  138.6224  171.5177 H       1  UNL1        0.1442
     19 H         143.9001  140.0909  172.3054 H       1  UNL1        0.1442
     20 C         138.3228  142.1865  161.1811 C.ar    1  UNL1        0.0536
     21 C         138.8648  142.6632  159.8661 C.ar    1  UNL1        0.0045
     22 C         138.7763  141.7827  158.6550 C.ar    1  UNL1        0.0001
     23 C         138.1458  140.4256  158.7587 C.ar    1  UNL1        0.0000
     24 C         137.6038  139.9490  160.0737 C.ar    1  UNL1        0.0001
     25 C         137.6923  140.8294  161.2848 C.ar    1  UNL1        0.0045
@<TRIPOS>BOND
     1     1     2    1
     2     2     3   ar
     3     3     4   ar
     4     4     5   ar
     5     5     6   ar
     6     6     7   ar
     7     7     8   ar
     8     8     9   ar
     9     9    10   ar
    10     7    11    1
    11    11    12    1
    12    12    13    1
    13    13    14   am
    14    14    15    2
    15    14    20    1
    16    20    21   ar
    17    21    22   ar
    18    22    23   ar
    19    23    24   ar
    20    24    25   ar
    21    13    16    1
    22    16    17    1
    23    10     2   ar
    24    25    20   ar
    25     9     4   ar
    26    17     6    1
    27     1    18    1
    28     1    19    1
@<TRIPOS>MOLECULE
*****
 25 28 0 0 0
SMALL
GASTEIGER

@<TRIPOS>ATOM
      1 N         141.2273  145.6618  158.0462 N.pl3   1  UNL1       -0.3375
      2 C         140.9862  144.9165  159.3254 C.ar    1  UNL1        0.1567
      3 N         141.7472  145.0935  160.6059 N.ar    1  UNL1       -0.2245
      4 C         141.1731  144.1497  161.6205 C.ar    1  UNL1        0.0889
      5 C         141.5223  143.8844  163.0550 C.ar    1  UNL1        0.0152
      6 C         140.7555  142.8587  163.8362 C.ar    1  UNL1       -0.0228
      7 C         139.6397  142.0985  163.1829 C.ar    1  UNL1       -0.0238
      8 C         139.2905  142.3638  161.7485 C.ar    1  UNL1        0.0036
      9 C         140.0572  143.3894  160.9673 C.ar    1  UNL1        0.0494
     10 S         139.9417  143.8633  159.5488 S.2     1  UNL1       -0.0520
     11 C         138.7554  141.0417  163.7757 C.3     1  UNL1        0.0475
     12 C         138.7687  140.4842  165.1683 C.3     1  UNL1        0.0984
     13 N         139.6695  140.8458  166.3118 N.am    1  UNL1       -0.2754
     14 C         139.4284  140.1005  167.5910 C.2     1  UNL1        0.2490
     15 O         138.3415  139.0694  167.6649 O.2     1  UNL1       -0.2699
     16 C         140.7795  141.8542  166.3454 C.3     1  UNL1        0.0984
     17 C         141.2628  142.7500  165.2437 C.3     1  UNL1        0.0476
     18 H         141.9406  146.3386  157.9977 H       1  UNL1        0.1442
     19 H         140.6721  145.4743  157.2551 H       1  UNL1        0.1442
     20 C         140.2743  140.3863  168.7965 C.ar    1  UNL1        0.0536
     21 C         139.8034  141.3692  169.8271 C.ar    1  UNL1        0.0045
     22 C         140.6491  141.6549  171.0325 C.ar    1  UNL1        0.0001
     23 C         141.9658  140.9578  171.2073 C.ar    1  UNL1        0.0000
     24 C         142.4366  139.9749  170.1766 C.ar    1  UNL1        0.0001
     25 C         141.5909  139.6891  168.9712 C.ar    1  UNL1        0.0045
@<TRIPOS>BOND
     1     1     2    1
     2     2     3   ar
     3     3     4   ar
     4     4     5   ar
     5     5     6   ar
     6     6     7   ar
     7     7     8   ar
     8     8     9   ar
     9     9    10   ar
    10     7    11    1
    11    11    12    1
    12    12    13    1
    13    13    14   am
    14    14    15    2
    15    14    20    1
    16    20    21   ar
    17    21    22   ar
    18    22    23   ar
    19    23    24   ar
    20    24    25   ar
    21    13    16    1
    22    16    17    1
    23    10     2   ar
    24    25    20   ar
    25     9     4   ar
    26    17     6    1
    27     1    18    1
    28     1    19    1
@<TRIPOS>MOLECULE
*****
 25 28 0 0 0
SMALL
GASTEIGER

@<TRIPOS>ATOM
      1 N         143.0282  138.5350  170.6326 N.pl3   1  UNL1       -0.3375
      2 C         142.5668  139.3406  169.4545 C.ar    1  UNL1        0.1567
      3 N         142.9914  139.1418  168.0296 N.ar    1  UNL1       -0.2245
      4 C         142.2868  140.1648  167.1889 C.ar    1  UNL1        0.0889
      5 C         142.3173  140.4470  165.7160 C.ar    1  UNL1        0.0152
      6 C         141.4876  141.5603  165.1483 C.ar    1  UNL1       -0.0228
      7 C         140.6275  142.3914  166.0535 C.ar    1  UNL1       -0.0238
      8 C         140.5970  142.1093  167.5264 C.ar    1  UNL1        0.0036
      9 C         141.4267  140.9960  168.0941 C.ar    1  UNL1        0.0494
     10 S         141.5997  140.4866  169.4943 S.2     1  UNL1       -0.0520
     11 C         139.7305  143.5396  165.6968 C.3     1  UNL1        0.0475
     12 C         139.4720  144.1401  164.3467 C.3     1  UNL1        0.0984
     13 N         140.0468  143.7408  163.0201 N.am    1  UNL1       -0.2754
     14 C         139.5854  144.5464  161.8419 C.2     1  UNL1        0.2490
     15 O         138.6098  145.6691  162.0368 O.2     1  UNL1       -0.2699
     16 C         141.0219  142.6424  162.7156 C.3     1  UNL1        0.0984
     17 C         141.6631  141.6720  163.6628 C.3     1  UNL1        0.0476
     18 H         143.6685  137.7981  170.5047 H       1  UNL1        0.1442
     19 H         142.6907  138.7430  171.5338 H       1  UNL1        0.1442
     20 C         140.0995  144.2295  160.4688 C.ar    1  UNL1        0.0536
     21 C         141.3080  144.9418  159.9376 C.ar    1  UNL1        0.0045
     22 C         141.8222  144.6250  158.5646 C.ar    1  UNL1        0.0001
     23 C         141.1279  143.5958  157.7228 C.ar    1  UNL1        0.0000
     24 C         139.9194  142.8834  158.2540 C.ar    1  UNL1        0.0001
     25 C         139.4052  143.2003  159.6270 C.ar    1  UNL1        0.0045
@<TRIPOS>BOND
     1     1     2    1
     2     2     3   ar
     3     3     4   ar
     4     4     5   ar
     5     5     6   ar
     6     6     7   ar
     7     7     8   ar
     8     8     9   ar
     9     9    10   ar
    10     7    11    1
    11    11    12    1
    12    12    13    1
    13    13    14   am
    14    14    15    2
    15    14    20    1
    16    20    21   ar
    17    21    22   ar
    18    22    23   ar
    19    23    24   ar
    20    24    25   ar
    21    13    16    1
    22    16    17    1
    23    10     2   ar
    24    25    20   ar
    25     9     4   ar
    26    17     6    1
    27     1    18    1
    28     1    19    1
@<TRIPOS>MOLECULE
*****
 25 28 0 0 0
SMALL
GASTEIGER

@<TRIPOS>ATOM
      1 N         143.7145  143.6241  157.2920 N.pl3   1  UNL1       -0.3375
      2 C         143.5789  143.0958  158.6893 C.ar    1  UNL1        0.1567
      3 N         142.8315  143.7528  159.8117 N.ar    1  UNL1       -0.2245
      4 C         142.9576  142.8808  161.0256 C.ar    1  UNL1        0.0889
      5 C         142.4275  143.0213  162.4218 C.ar    1  UNL1        0.0152
      6 C         142.7228  141.9658  163.4459 C.ar    1  UNL1       -0.0228
      7 C         143.5481  140.7700  163.0738 C.ar    1  UNL1       -0.0238
      8 C         144.0783  140.6294  161.6777 C.ar    1  UNL1        0.0036
      9 C         143.7830  141.6849  160.6536 C.ar    1  UNL1        0.0494
     10 S         144.1670  141.8178  159.2097 S.2     1  UNL1       -0.0520
     11 C         143.9568  139.6112  163.9344 C.3     1  UNL1        0.0475
     12 C         143.6409  139.3623  165.3795 C.3     1  UNL1        0.0984
     13 N         142.8385  140.2106  166.3209 N.am    1  UNL1       -0.2754
     14 C         142.7029  139.6824  167.7182 C.2     1  UNL1        0.2490
     15 O         143.3499  138.3825  168.0947 O.2     1  UNL1       -0.2699
     16 C         142.1536  141.5174  166.0499 C.3     1  UNL1        0.0984
     17 C         142.1021  142.2985  164.7704 C.3     1  UNL1        0.0476
     18 H         143.2899  144.4772  157.0449 H       1  UNL1        0.1442
     19 H         144.2282  143.1176  156.6219 H       1  UNL1        0.1442
     20 C         141.9202  140.4539  168.7392 C.ar    1  UNL1        0.0536
     21 C         142.6125  141.4569  169.6138 C.ar    1  UNL1        0.0045
     22 C         141.8300  142.2284  170.6347 C.ar    1  UNL1        0.0001
     23 C         140.3552  141.9971  170.7810 C.ar    1  UNL1        0.0000
     24 C         139.6629  140.9942  169.9064 C.ar    1  UNL1        0.0001
     25 C         140.4454  140.2226  168.8855 C.ar    1  UNL1        0.0045
@<TRIPOS>BOND
     1     1     2    1
     2     2     3   ar
     3     3     4   ar
     4     4     5   ar
     5     5     6   ar
     6     6     7   ar
     7     7     8   ar
     8     8     9   ar
     9     9    10   ar
    10     7    11    1
    11    11    12    1
    12    12    13    1
    13    13    14   am
    14    14    15    2
    15    14    20    1
    16    20    21   ar
    17    21    22   ar
    18    22    23   ar
    19    23    24   ar
    20    24    25   ar
    21    13    16    1
    22    16    17    1
    23    10     2   ar
    24    25    20   ar
    25     9     4   ar
    26    17     6    1
    27     1    18    1
    28     1    19    1
@<TRIPOS>MOLECULE
*****
 25 28 0 0 0
SMALL
GASTEIGER

@<TRIPOS>ATOM
      1 N         138.8727  139.1312  156.7740 N.pl3   1  UNL1       -0.3375
      2 C         139.2913  139.2124  158.2121 C.ar    1  UNL1        0.1567
      3 N         138.6724  140.0861  159.2626 N.ar    1  UNL1       -0.2245
      4 C         139.4009  139.8478  160.5519 C.ar    1  UNL1        0.0889
      5 C         139.2288  140.4287  161.9242 C.ar    1  UNL1        0.0152
      6 C         140.1260  139.9884  163.0429 C.ar    1  UNL1       -0.0228
      7 C         141.1951  138.9674  162.7892 C.ar    1  UNL1       -0.0238
      8 C         141.3672  138.3866  161.4171 C.ar    1  UNL1        0.0036
      9 C         140.4701  138.8268  160.2984 C.ar    1  UNL1        0.0494
     10 S         140.4024  138.4341  158.8523 S.2     1  UNL1       -0.0520
     11 C         142.1891  138.3942  163.7555 C.3     1  UNL1        0.0475
     12 C         142.3593  138.7006  165.2141 C.3     1  UNL1        0.0984
     13 N         141.5776  139.6557  166.0664 N.am    1  UNL1       -0.2754
     14 C         141.9962  139.7369  167.5045 C.2     1  UNL1        0.2490
     15 O         143.1315  138.8932  168.0040 O.2     1  UNL1       -0.2699
     16 C         140.4326  140.5404  165.6710 C.3     1  UNL1        0.0984
     17 C         139.7866  140.6885  164.3253 C.3     1  UNL1        0.0476
     18 H         138.1276  139.6849  156.4462 H       1  UNL1        0.1442
     19 H         139.3431  138.5242  156.1579 H       1  UNL1        0.1442
     20 C         141.2795  140.6618  168.4433 C.ar    1  UNL1        0.0536
     21 C         140.0535  140.1919  169.1686 C.ar    1  UNL1        0.0045
     22 C         139.3368  141.1166  170.1073 C.ar    1  UNL1        0.0001
     23 C         139.8462  142.5113  170.3207 C.ar    1  UNL1        0.0000
     24 C         141.0723  142.9811  169.5954 C.ar    1  UNL1        0.0001
     25 C         141.7889  142.0564  168.6567 C.ar    1  UNL1        0.0045
@<TRIPOS>BOND
     1     1     2    1
     2     2     3   ar
     3     3     4   ar
     4     4     5   ar
     5     5     6   ar
     6     6     7   ar
     7     7     8   ar
     8     8     9   ar
     9     9    10   ar
    10     7    11    1
    11    11    12    1
    12    12    13    1
    13    13    14   am
    14    14    15    2
    15    14    20    1
    16    20    21   ar
    17    21    22   ar
    18    22    23   ar
    19    23    24   ar
    20    24    25   ar
    21    13    16    1
    22    16    17    1
    23    10     2   ar
    24    25    20   ar
    25     9     4   ar
    26    17     6    1
    27     1    18    1
    28     1    19    1
@<TRIPOS>MOLECULE
*****
 25 28 0 0 0
SMALL
GASTEIGER

@<TRIPOS>ATOM
      1 N         140.4812  146.2819  157.2612 N.pl3   1  UNL1       -0.3375
      2 C         140.6778  145.5645  158.5638 C.ar    1  UNL1        0.1567
      3 N         139.9657  145.8615  159.8503 N.ar    1  UNL1       -0.2245
      4 C         140.4688  144.9047  160.8901 C.ar    1  UNL1        0.0889
      5 C         140.1276  144.7276  162.3400 C.ar    1  UNL1        0.0152
      6 C         140.8094  143.6621  163.1463 C.ar    1  UNL1       -0.0228
      7 C         141.8322  142.7738  162.5026 C.ar    1  UNL1       -0.0238
      8 C         142.1735  142.9508  161.0527 C.ar    1  UNL1        0.0036
      9 C         141.4918  144.0163  160.2464 C.ar    1  UNL1        0.0494
     10 S         141.6209  144.4241  158.8087 S.2     1  UNL1       -0.0520
     11 C         142.6238  141.6590  163.1196 C.3     1  UNL1        0.0475
     12 C         142.5878  141.1572  164.5329 C.3     1  UNL1        0.0984
     13 N         141.7515  141.6464  165.6778 N.am    1  UNL1       -0.2754
     14 C         141.9480  140.9290  166.9804 C.2     1  UNL1        0.2490
     15 O         142.9323  139.8009  167.0743 O.2     1  UNL1       -0.2699
     16 C         140.7445  142.7581  165.6927 C.3     1  UNL1        0.0984
     17 C         140.3252  143.6552  164.5660 C.3     1  UNL1        0.0476
     18 H         139.8352  147.0223  157.1996 H       1  UNL1        0.1442
     19 H         140.9981  146.0123  156.4679 H       1  UNL1        0.1442
     20 C         141.1604  141.3396  168.1892 C.ar    1  UNL1        0.0536
     21 C         141.5107  142.6024  168.9192 C.ar    1  UNL1        0.0045
     22 C         140.7232  143.0130  170.1279 C.ar    1  UNL1        0.0001
     23 C         139.5853  142.1610  170.6067 C.ar    1  UNL1        0.0000
     24 C         139.2350  140.8983  169.8767 C.ar    1  UNL1        0.0001
     25 C         140.0225  140.4876  168.6680 C.ar    1  UNL1        0.0045
@<TRIPOS>BOND
     1     1     2    1
     2     2     3   ar
     3     3     4   ar
     4     4     5   ar
     5     5     6   ar
     6     6     7   ar
     7     7     8   ar
     8     8     9   ar
     9     9    10   ar
    10     7    11    1
    11    11    12    1
    12    12    13    1
    13    13    14   am
    14    14    15    2
    15    14    20    1
    16    20    21   ar
    17    21    22   ar
    18    22    23   ar
    19    23    24   ar
    20    24    25   ar
    21    13    16    1
    22    16    17    1
    23    10     2   ar
    24    25    20   ar
    25     9     4   ar
    26    17     6    1
    27     1    18    1
    28     1    19    1
@<TRIPOS>MOLECULE
*****
 25 28 0 0 0
SMALL
GASTEIGER

@<TRIPOS>ATOM
      1 N         138.9103  141.2672  156.8939 N.pl3   1  UNL1       -0.3375
      2 C         139.0260  141.1601  158.3856 C.ar    1  UNL1        0.1567
      3 N         140.0183  141.8833  159.2473 N.ar    1  UNL1       -0.2245
      4 C         139.7753  141.4810  160.6717 C.ar    1  UNL1        0.0889
      5 C         140.4468  141.8742  161.9542 C.ar    1  UNL1        0.0152
      6 C         139.9757  141.2954  163.2554 C.ar    1  UNL1       -0.0228
      7 C         138.8333  140.3236  163.2742 C.ar    1  UNL1       -0.0238
      8 C         138.1619  139.9304  161.9918 C.ar    1  UNL1        0.0036
      9 C         138.6329  140.5092  160.6905 C.ar    1  UNL1        0.0494
     10 S         138.1698  140.3108  159.2776 S.2     1  UNL1       -0.0520
     11 C         138.2115  139.6338  164.4522 C.3     1  UNL1        0.0475
     12 C         138.5785  139.7456  165.9023 C.3     1  UNL1        0.0984
     13 N         139.6580  140.5747  166.5325 N.am    1  UNL1       -0.2754
     14 C         139.7737  140.4675  168.0242 C.2     1  UNL1        0.2490
     15 O         138.8422  139.5723  168.7864 O.2     1  UNL1       -0.2699
     16 C         140.6371  141.4968  165.8684 C.3     1  UNL1        0.0984
     17 C         140.7785  141.8176  164.4099 C.3     1  UNL1        0.0476
     18 H         139.5217  141.8548  156.3937 H       1  UNL1        0.1442
     19 H         138.2230  140.7500  156.4151 H       1  UNL1        0.1442
     20 C         140.8210  141.2556  168.7538 C.ar    1  UNL1        0.0536
     21 C         140.5100  142.6364  169.2505 C.ar    1  UNL1        0.0045
     22 C         141.5572  143.4245  169.9801 C.ar    1  UNL1        0.0001
     23 C         142.9153  142.8318  170.2131 C.ar    1  UNL1        0.0000
     24 C         143.2262  141.4509  169.7164 C.ar    1  UNL1        0.0001
     25 C         142.1791  140.6629  168.9868 C.ar    1  UNL1        0.0045
@<TRIPOS>BOND
     1     1     2    1
     2     2     3   ar
     3     3     4   ar
     4     4     5   ar
     5     5     6   ar
     6     6     7   ar
     7     7     8   ar
     8     8     9   ar
     9     9    10   ar
    10     7    11    1
    11    11    12    1
    12    12    13    1
    13    13    14   am
    14    14    15    2
    15    14    20    1
    16    20    21   ar
    17    21    22   ar
    18    22    23   ar
    19    23    24   ar
    20    24    25   ar
    21    13    16    1
    22    16    17    1
    23    10     2   ar
    24    25    20   ar
    25     9     4   ar
    26    17     6    1
    27     1    18    1
    28     1    19    1
@<TRIPOS>MOLECULE
*****
 25 28 0 0 0
SMALL
GASTEIGER

@<TRIPOS>ATOM
      1 N         142.6659  140.3014  171.7934 N.pl3   1  UNL1       -0.3375
      2 C         142.1450  140.2335  170.3884 C.ar    1  UNL1        0.1567
      3 N         142.9746  140.2499  169.1387 N.ar    1  UNL1       -0.2245
      4 C         142.0454  140.1638  167.9644 C.ar    1  UNL1        0.0889
      5 C         142.2962  140.1398  166.4857 C.ar    1  UNL1        0.0152
      6 C         141.1431  140.0462  165.5308 C.ar    1  UNL1       -0.0228
      7 C         139.7394  139.9766  166.0546 C.ar    1  UNL1       -0.0238
      8 C         139.4885  140.0005  167.5333 C.ar    1  UNL1        0.0036
      9 C         140.6415  140.0942  168.4882 C.ar    1  UNL1        0.0494
     10 S         140.7031  140.1372  169.9863 S.2     1  UNL1       -0.0520
     11 C         138.4568  139.8801  165.2827 C.3     1  UNL1        0.0475
     12 C         138.2614  139.8294  163.7963 C.3     1  UNL1        0.0984
     13 N         139.3002  139.8626  162.7149 N.am    1  UNL1       -0.2754
     14 C         138.7794  139.7947  161.3098 C.2     1  UNL1        0.2490
     15 O         137.3031  139.7005  161.0609 O.2     1  UNL1       -0.2699
     16 C         140.7911  139.9548  162.8525 C.3     1  UNL1        0.0984
     17 C         141.6113  140.0365  164.1057 C.3     1  UNL1        0.0476
     18 H         143.6348  140.3632  171.9568 H       1  UNL1        0.1442
     19 H         142.0389  140.2841  172.5522 H       1  UNL1        0.1442
     20 C         139.7347  139.8211  160.1536 C.ar    1  UNL1        0.0536
     21 C         140.2689  138.5365  159.5928 C.ar    1  UNL1        0.0045
     22 C         141.2242  138.5628  158.4367 C.ar    1  UNL1        0.0001
     23 C         141.6452  139.8736  157.8413 C.ar    1  UNL1        0.0000
     24 C         141.1110  141.1582  158.4021 C.ar    1  UNL1        0.0001
     25 C         140.1557  141.1319  159.5583 C.ar    1  UNL1        0.0045
@<TRIPOS>BOND
     1     1     2    1
     2     2     3   ar
     3     3     4   ar
     4     4     5   ar
     5     5     6   ar
     6     6     7   ar
     7     7     8   ar
     8     8     9   ar
     9     9    10   ar
    10     7    11    1
    11    11    12    1
    12    12    13    1
    13    13    14   am
    14    14    15    2
    15    14    20    1
    16    20    21   ar
    17    21    22   ar
    18    22    23   ar
    19    23    24   ar
    20    24    25   ar
    21    13    16    1
    22    16    17    1
    23    10     2   ar
    24    25    20   ar
    25     9     4   ar
    26    17     6    1
    27     1    18    1
    28     1    19    1
