@<TRIPOS>MOLECULE
*****
 41 47 0 0 0
SMALL
GASTEIGER

@<TRIPOS>ATOM
      1 C         139.5364  139.1464  163.5881 C.3     1  UNL1        0.0955
      2 C         139.2306  138.0135  162.6537 C.3     1  UNL1        0.0287
      3 C         138.4897  138.2744  161.3758 C.3     1  UNL1        0.0193
      4 C         138.0546  139.6682  161.0323 C.3     1  UNL1        0.0700
      5 C         138.3604  140.8011  161.9667 C.3     1  UNL1        0.0193
      6 C         139.1013  140.5402  163.2446 C.3     1  UNL1        0.0287
      7 C         138.4580  139.5743  161.7439 C.3     1  UNL1        0.1562
      8 O         139.1280  139.3385  162.8994 O.3     1  UNL1       -0.3571
      9 N         137.3137  139.9291  159.7545 N.3     1  UNL1       -0.2926
     10 H         136.6338  140.6632  159.9530 H       1  UNL1        0.1236
     11 C         138.0630  140.3535  158.5263 C.3     1  UNL1        0.1152
     12 C         139.3651  139.6957  158.1773 C.ar    1  UNL1        0.0765
     13 C         140.6606  140.3414  158.5705 C.ar    1  UNL1        0.0193
     14 C         141.9627  139.6836  158.2215 C.ar    1  UNL1        0.0411
     15 C         141.9693  138.3802  157.4793 C.ar    1  UNL1        0.1708
     16 C         140.6737  137.7344  157.0861 C.ar    1  UNL1        0.1682
     17 N         139.3716  138.3922  157.4351 N.ar    1  UNL1       -0.2304
     18 N         140.6803  136.4309  156.3439 N.am    1  UNL1       -0.2639
     19 C         141.9824  135.7731  155.9949 C.2     1  UNL1        0.2718
     20 O         141.9891  134.4696  155.2527 O.2     1  UNL1       -0.2707
     21 C         143.2780  136.4189  156.3881 C.3     1  UNL1        0.2898
     22 O         143.2715  137.7224  157.1303 O.3     1  UNL1       -0.4628
     23 H         139.8300  136.0071  156.0859 H       1  UNL1        0.1565
     24 C         140.2774  138.8855  164.8660 C.3     1  UNL1        0.0604
     25 C         142.4939  143.0462  170.3006 C.3     1  UNL1        0.0328
     26 C         141.5072  142.1162  169.6591 C.ar    1  UNL1        0.0019
     27 C         140.2528  141.7348  170.3877 C.ar    1  UNL1        0.0580
     28 C         139.2662  140.8048  169.7462 C.ar    1  UNL1        0.2608
     29 O         138.0116  140.4234  170.4749 O.2     1  UNL1       -0.2670
     30 N         139.4109  140.1842  168.3809 N.ar    1  UNL1       -0.2915
     31 C         140.7019  140.6527  167.7776 C.ar    1  UNL1        0.0803
     32 C         140.8329  140.0280  166.4202 C.ar    1  UNL1        0.0500
     33 C         142.0370  140.3180  165.5742 C.ar    1  UNL1        0.1588
     34 F         142.1680  139.6932  164.2168 F       1  UNL1       -0.2027
     35 C         143.1101  141.2328  166.0855 C.ar    1  UNL1        0.1282
     36 N         142.9791  141.8576  167.4428 N.ar    1  UNL1       -0.2404
     37 C         141.7750  141.5675  168.2889 C.ar    1  UNL1        0.0932
     38 C         139.6229  139.1733  166.1846 C.3     1  UNL1        0.1335
     39 O         138.5497  138.2584  165.6733 O.3     1  UNL1       -0.3806
     40 C         138.7441  139.2699  167.3963 C.3     1  UNL1        0.1402
     41 H         138.7883  137.9434  164.7875 H       1  UNL1        0.2108
@<TRIPOS>BOND
     1    25    26    1
     2    26    27   ar
     3    27    28   ar
     4    28    29    2
     5    28    30   ar
     6    30    31   ar
     7    31    32   ar
     8    32    33   ar
     9    33    34    1
    10    33    35   ar
    11    35    36   ar
    12    36    37   ar
    13    32    38    1
    14    38    39    1
    15    38    24    1
    16    24     1    1
    17     1     2    1
    18     2     3    1
    19     3     4    1
    20     4     9    1
    21     9    11    1
    22    11    12    1
    23    12    13   ar
    24    13    14   ar
    25    14    15   ar
    26    15    16   ar
    27    16    17   ar
    28    16    18    1
    29    18    19   am
    30    19    20    2
    31    19    21    1
    32    21    22    1
    33     4     5    1
    34     5     6    1
    35     4     7    1
    36     7     8    1
    37    38    40    1
    38    37    26   ar
    39     6     1    1
    40    40    30    1
    41    37    31   ar
    42     8     1    1
    43    17    12   ar
    44    22    15    1
    45    39    41    1
    46     9    10    1
    47    18    23    1
@<TRIPOS>MOLECULE
*****
 41 47 0 0 0
SMALL
GASTEIGER

@<TRIPOS>ATOM
      1 C         142.1830  138.8988  162.5997 C.3     1  UNL1        0.0955
      2 C         141.6705  140.0769  161.8254 C.3     1  UNL1        0.0287
      3 C         142.1919  140.3523  160.4462 C.3     1  UNL1        0.0193
      4 C         143.2258  139.4496  159.8412 C.3     1  UNL1        0.0700
      5 C         143.7384  138.2715  160.6154 C.3     1  UNL1        0.0193
      6 C         143.2170  137.9961  161.9947 C.3     1  UNL1        0.0287
      7 C         142.9702  139.2583  160.6002 C.3     1  UNL1        0.1562
      8 O         142.4987  139.0092  161.8473 O.3     1  UNL1       -0.3571
      9 N         143.7472  139.7249  158.4621 N.3     1  UNL1       -0.2926
     10 H         144.5467  139.1074  158.3208 H       1  UNL1        0.1236
     11 C         142.8502  139.5510  157.2725 C.3     1  UNL1        0.1152
     12 C         142.4785  138.1739  156.8083 C.ar    1  UNL1        0.0765
     13 C         141.0924  137.9010  156.3042 C.ar    1  UNL1        0.0193
     14 C         140.7207  136.5239  155.8400 C.ar    1  UNL1        0.0411
     15 C         141.7351  135.4198  155.8799 C.ar    1  UNL1        0.1708
     16 C         143.1213  135.6925  156.3840 C.ar    1  UNL1        0.1682
     17 N         143.4930  137.0696  156.8482 N.ar    1  UNL1       -0.2304
     18 N         144.1357  134.5884  156.4239 N.am    1  UNL1       -0.2639
     19 C         143.7640  133.2113  155.9597 C.2     1  UNL1        0.2718
     20 O         144.7784  132.1070  155.9995 O.2     1  UNL1       -0.2707
     21 C         142.3778  132.9384  155.4556 C.3     1  UNL1        0.2898
     22 O         141.3633  134.0426  155.4157 O.3     1  UNL1       -0.4628
     23 H         145.0455  134.7675  156.7547 H       1  UNL1        0.1565
     24 C         141.6616  138.6234  163.9790 C.3     1  UNL1        0.0604
     25 C         138.4252  140.4106  170.1508 C.3     1  UNL1        0.0328
     26 C         139.6037  140.4097  169.2228 C.ar    1  UNL1        0.0019
     27 C         140.8742  141.0990  169.6235 C.ar    1  UNL1        0.0580
     28 C         142.0527  141.0981  168.6955 C.ar    1  UNL1        0.2608
     29 O         143.3234  141.7874  169.0962 O.2     1  UNL1       -0.2670
     30 N         142.0951  140.4458  167.3380 N.ar    1  UNL1       -0.2915
     31 C         140.7659  139.8020  167.0757 C.ar    1  UNL1        0.0803
     32 C         140.8221  139.1572  165.7225 C.ar    1  UNL1        0.0500
     33 C         139.6241  138.4301  165.1878 C.ar    1  UNL1        0.1588
     34 F         139.6803  137.7853  163.8346 F       1  UNL1       -0.2027
     35 C         138.3698  138.3477  166.0063 C.ar    1  UNL1        0.1282
     36 N         138.3136  138.9924  167.3595 N.ar    1  UNL1       -0.2404
     37 C         139.5116  139.7196  167.8942 C.ar    1  UNL1        0.0932
     38 C         142.1861  139.4025  165.1485 C.3     1  UNL1        0.1335
     39 O         143.4404  139.4850  164.3300 O.3     1  UNL1       -0.3806
     40 C         142.9728  140.1989  166.1469 C.3     1  UNL1        0.1402
     41 H         143.3089  139.0198  163.4890 H       1  UNL1        0.2108
@<TRIPOS>BOND
     1    25    26    1
     2    26    27   ar
     3    27    28   ar
     4    28    29    2
     5    28    30   ar
     6    30    31   ar
     7    31    32   ar
     8    32    33   ar
     9    33    34    1
    10    33    35   ar
    11    35    36   ar
    12    36    37   ar
    13    32    38    1
    14    38    39    1
    15    38    24    1
    16    24     1    1
    17     1     2    1
    18     2     3    1
    19     3     4    1
    20     4     9    1
    21     9    11    1
    22    11    12    1
    23    12    13   ar
    24    13    14   ar
    25    14    15   ar
    26    15    16   ar
    27    16    17   ar
    28    16    18    1
    29    18    19   am
    30    19    20    2
    31    19    21    1
    32    21    22    1
    33     4     5    1
    34     5     6    1
    35     4     7    1
    36     7     8    1
    37    38    40    1
    38    37    26   ar
    39     6     1    1
    40    40    30    1
    41    37    31   ar
    42     8     1    1
    43    17    12   ar
    44    22    15    1
    45    39    41    1
    46     9    10    1
    47    18    23    1
@<TRIPOS>MOLECULE
*****
 41 47 0 0 0
SMALL
GASTEIGER

@<TRIPOS>ATOM
      1 C         139.2327  138.8220  163.7468 C.3     1  UNL1        0.0955
      2 C         139.2268  137.8305  162.6212 C.3     1  UNL1        0.0287
      3 C         138.5303  138.1608  161.3344 C.3     1  UNL1        0.0193
      4 C         137.8397  139.4825  161.1732 C.3     1  UNL1        0.0700
      5 C         137.8456  140.4740  162.2988 C.3     1  UNL1        0.0193
      6 C         138.5421  140.1437  163.5856 C.3     1  UNL1        0.0287
      7 C         138.2080  139.3465  161.8970 C.3     1  UNL1        0.1562
      8 O         138.8378  139.0479  163.0606 O.3     1  UNL1       -0.3571
      9 N         137.1432  139.8129  159.8865 N.3     1  UNL1       -0.2926
     10 H         136.3600  140.4217  160.1236 H       1  UNL1        0.1236
     11 C         137.8958  140.4872  158.7779 C.3     1  UNL1        0.1152
     12 C         139.3719  140.7206  158.9070 C.ar    1  UNL1        0.0765
     13 C         140.3341  139.9024  158.0980 C.ar    1  UNL1        0.0193
     14 C         141.8102  140.1358  158.2271 C.ar    1  UNL1        0.0411
     15 C         142.3240  141.1873  159.1651 C.ar    1  UNL1        0.1708
     16 C         141.3618  142.0056  159.9742 C.ar    1  UNL1        0.1682
     17 N         139.8857  141.7722  159.8451 N.ar    1  UNL1       -0.2304
     18 N         141.8756  143.0572  160.9123 N.am    1  UNL1       -0.2639
     19 C         143.3517  143.2906  161.0413 C.2     1  UNL1        0.2718
     20 O         143.8657  144.3422  161.9794 O.2     1  UNL1       -0.2707
     21 C         144.3141  142.4724  160.2323 C.3     1  UNL1        0.2898
     22 O         143.8002  141.4207  159.2941 O.3     1  UNL1       -0.4628
     23 H         141.2441  143.5943  161.4432 H       1  UNL1        0.1565
     24 C         139.9292  138.4916  165.0336 C.3     1  UNL1        0.0604
     25 C         142.4983  142.8120  170.1808 C.3     1  UNL1        0.0328
     26 C         141.4444  141.9104  169.6097 C.ar    1  UNL1        0.0019
     27 C         140.1823  141.6514  170.3778 C.ar    1  UNL1        0.0580
     28 C         139.1283  140.7498  169.8067 C.ar    1  UNL1        0.2608
     29 O         137.8662  140.4908  170.5749 O.2     1  UNL1       -0.2670
     30 N         139.2093  140.0434  168.4783 N.ar    1  UNL1       -0.2915
     31 C         140.5156  140.3941  167.8296 C.ar    1  UNL1        0.0803
     32 C         140.5828  139.6849  166.5096 C.ar    1  UNL1        0.0500
     33 C         141.7869  139.8492  165.6303 C.ar    1  UNL1        0.1588
     34 F         141.8541  139.1399  164.3103 F       1  UNL1       -0.2027
     35 C         142.9238  140.7227  166.0711 C.ar    1  UNL1        0.1282
     36 N         142.8566  141.4320  167.3912 N.ar    1  UNL1       -0.2404
     37 C         141.6525  141.2676  168.2704 C.ar    1  UNL1        0.0932
     38 C         139.3181  138.8958  166.3425 C.3     1  UNL1        0.1335
     39 O         138.1811  138.0222  165.9017 O.3     1  UNL1       -0.3806
     40 C         138.4692  139.1174  167.5592 C.3     1  UNL1        0.1402
     41 H         138.3835  137.6421  165.0325 H       1  UNL1        0.2108
@<TRIPOS>BOND
     1    25    26    1
     2    26    27   ar
     3    27    28   ar
     4    28    29    2
     5    28    30   ar
     6    30    31   ar
     7    31    32   ar
     8    32    33   ar
     9    33    34    1
    10    33    35   ar
    11    35    36   ar
    12    36    37   ar
    13    32    38    1
    14    38    39    1
    15    38    24    1
    16    24     1    1
    17     1     2    1
    18     2     3    1
    19     3     4    1
    20     4     9    1
    21     9    11    1
    22    11    12    1
    23    12    13   ar
    24    13    14   ar
    25    14    15   ar
    26    15    16   ar
    27    16    17   ar
    28    16    18    1
    29    18    19   am
    30    19    20    2
    31    19    21    1
    32    21    22    1
    33     4     5    1
    34     5     6    1
    35     4     7    1
    36     7     8    1
    37    38    40    1
    38    37    26   ar
    39     6     1    1
    40    40    30    1
    41    37    31   ar
    42     8     1    1
    43    17    12   ar
    44    22    15    1
    45    39    41    1
    46     9    10    1
    47    18    23    1
@<TRIPOS>MOLECULE
*****
 41 47 0 0 0
SMALL
GASTEIGER

@<TRIPOS>ATOM
      1 C         144.0989  142.1061  159.5688 C.3     1  UNL1        0.0955
      2 C         144.9156  142.5190  158.3802 C.3     1  UNL1        0.0287
      3 C         145.0932  141.5752  157.2279 C.3     1  UNL1        0.0193
      4 C         144.4542  140.2186  157.2642 C.3     1  UNL1        0.0700
      5 C         143.6376  139.8058  158.4528 C.3     1  UNL1        0.0193
      6 C         143.4599  140.7496  159.6051 C.3     1  UNL1        0.0287
      7 C         144.3286  140.7013  157.9193 C.3     1  UNL1        0.1562
      8 O         144.1680  141.5547  158.9613 O.3     1  UNL1       -0.3571
      9 N         144.6319  139.2748  156.1120 N.3     1  UNL1       -0.2926
     10 H         145.1348  138.4633  156.4710 H       1  UNL1        0.1236
     11 C         143.4321  138.7515  155.3794 C.3     1  UNL1        0.1152
     12 C         143.0155  137.3205  155.5481 C.ar    1  UNL1        0.0765
     13 C         141.6659  136.8712  155.0719 C.ar    1  UNL1        0.0193
     14 C         141.2492  135.4401  155.2407 C.ar    1  UNL1        0.0411
     15 C         142.1820  134.4585  155.8856 C.ar    1  UNL1        0.1708
     16 C         143.5317  134.9077  156.3618 C.ar    1  UNL1        0.1682
     17 N         143.9483  136.3387  156.1931 N.ar    1  UNL1       -0.2304
     18 N         144.4645  133.9260  157.0067 N.am    1  UNL1       -0.2639
     19 C         144.0478  132.4950  157.1755 C.2     1  UNL1        0.2718
     20 O         144.9806  131.5132  157.8204 O.2     1  UNL1       -0.2707
     21 C         142.6982  132.0456  156.6993 C.3     1  UNL1        0.2898
     22 O         141.7653  133.0274  156.0543 O.3     1  UNL1       -0.4628
     23 H         145.3503  134.2209  157.3193 H       1  UNL1        0.1565
     24 C         143.9213  143.0500  160.7211 C.3     1  UNL1        0.0604
     25 C         140.2823  142.9648  166.9267 C.3     1  UNL1        0.0328
     26 C         140.4211  143.3165  165.4752 C.ar    1  UNL1        0.0019
     27 C         139.3110  144.0362  164.7684 C.ar    1  UNL1        0.0580
     28 C         139.4497  144.3879  163.3169 C.ar    1  UNL1        0.2608
     29 O         138.3395  145.1077  162.6101 O.2     1  UNL1       -0.2670
     30 N         140.6454  144.0787  162.4536 N.ar    1  UNL1       -0.2915
     31 C         141.6657  143.3639  163.2891 C.ar    1  UNL1        0.0803
     32 C         142.8492  143.0626  162.4181 C.ar    1  UNL1        0.0500
     33 C         144.0370  142.3458  162.9884 C.ar    1  UNL1        0.1588
     34 F         145.2204  142.0445  162.1174 F       1  UNL1       -0.2027
     35 C         144.0413  141.9304  164.4297 C.ar    1  UNL1        0.1282
     36 N         142.8579  142.2317  165.3007 N.ar    1  UNL1       -0.2404
     37 C         141.6701  142.9485  164.7304 C.ar    1  UNL1        0.0932
     38 C         142.5602  143.5911  161.0444 C.3     1  UNL1        0.1335
     39 O         142.5558  144.0066  159.6030 O.3     1  UNL1       -0.3806
     40 C         141.1982  144.2192  161.0663 C.3     1  UNL1        0.1402
     41 H         143.3895  143.7378  159.1865 H       1  UNL1        0.2108
@<TRIPOS>BOND
     1    25    26    1
     2    26    27   ar
     3    27    28   ar
     4    28    29    2
     5    28    30   ar
     6    30    31   ar
     7    31    32   ar
     8    32    33   ar
     9    33    34    1
    10    33    35   ar
    11    35    36   ar
    12    36    37   ar
    13    32    38    1
    14    38    39    1
    15    38    24    1
    16    24     1    1
    17     1     2    1
    18     2     3    1
    19     3     4    1
    20     4     9    1
    21     9    11    1
    22    11    12    1
    23    12    13   ar
    24    13    14   ar
    25    14    15   ar
    26    15    16   ar
    27    16    17   ar
    28    16    18    1
    29    18    19   am
    30    19    20    2
    31    19    21    1
    32    21    22    1
    33     4     5    1
    34     5     6    1
    35     4     7    1
    36     7     8    1
    37    38    40    1
    38    37    26   ar
    39     6     1    1
    40    40    30    1
    41    37    31   ar
    42     8     1    1
    43    17    12   ar
    44    22    15    1
    45    39    41    1
    46     9    10    1
    47    18    23    1
@<TRIPOS>MOLECULE
*****
 41 47 0 0 0
SMALL
GASTEIGER

@<TRIPOS>ATOM
      1 C         141.3174  138.3635  158.5417 C.3     1  UNL1        0.0955
      2 C         142.5638  137.5488  158.3609 C.3     1  UNL1        0.0287
      3 C         142.7372  136.7059  157.1323 C.3     1  UNL1        0.0193
      4 C         141.6642  136.6777  156.0845 C.3     1  UNL1        0.0700
      5 C         140.4178  137.4924  156.2654 C.3     1  UNL1        0.0193
      6 C         140.2444  138.3353  157.4940 C.3     1  UNL1        0.0287
      7 C         141.5241  137.1548  156.7408 C.3     1  UNL1        0.1562
      8 O         141.3673  137.9170  157.8518 O.3     1  UNL1       -0.3571
      9 N         141.8375  135.8348  154.8560 N.3     1  UNL1       -0.2926
     10 H         142.8394  135.6783  154.7452 H       1  UNL1        0.1236
     11 C         141.1771  134.4909  154.7691 C.3     1  UNL1        0.1152
     12 C         141.9905  133.2427  154.9431 C.ar    1  UNL1        0.0765
     13 C         142.5953  132.5689  153.7472 C.ar    1  UNL1        0.0193
     14 C         143.4088  131.3207  153.9211 C.ar    1  UNL1        0.0411
     15 C         143.6174  130.7463  155.2909 C.ar    1  UNL1        0.1708
     16 C         143.0126  131.4201  156.4869 C.ar    1  UNL1        0.1682
     17 N         142.1992  132.6683  156.3129 N.ar    1  UNL1       -0.2304
     18 N         143.2213  130.8457  157.8567 N.am    1  UNL1       -0.2639
     19 C         144.0347  129.5975  158.0307 C.2     1  UNL1        0.2718
     20 O         144.2434  129.0230  159.4005 O.2     1  UNL1       -0.2707
     21 C         144.6396  128.9236  156.8347 C.3     1  UNL1        0.2898
     22 O         144.4309  129.4981  155.4649 O.3     1  UNL1       -0.4628
     23 H         142.8243  131.2879  158.6416 H       1  UNL1        0.1565
     24 C         141.1440  139.2064  159.7704 C.3     1  UNL1        0.0604
     25 C         143.7688  138.3262  166.4108 C.3     1  UNL1        0.0328
     26 C         143.7984  138.9430  165.0438 C.ar    1  UNL1        0.0019
     27 C         144.8766  139.9225  164.6861 C.ar    1  UNL1        0.0580
     28 C         144.9061  140.5393  163.3191 C.ar    1  UNL1        0.2608
     29 O         145.9843  141.5189  162.9614 O.2     1  UNL1       -0.2670
     30 N         143.9182  140.2641  162.2151 N.ar    1  UNL1       -0.2915
     31 C         142.9074  139.2746  162.7143 C.ar    1  UNL1        0.0803
     32 C         141.9314  139.0101  161.6064 C.ar    1  UNL1        0.0500
     33 C         140.7976  138.0513  161.8187 C.ar    1  UNL1        0.1588
     34 F         139.8215  137.7869  160.7108 F       1  UNL1       -0.2027
     35 C         140.6399  137.3569  163.1389 C.ar    1  UNL1        0.1282
     36 N         141.6159  137.6214  164.2468 N.ar    1  UNL1       -0.2404
     37 C         142.7497  138.5802  164.0345 C.ar    1  UNL1        0.0932
     38 C         142.3390  139.8362  160.4226 C.3     1  UNL1        0.1335
     39 O         142.4967  140.5307  159.1024 O.3     1  UNL1       -0.3806
     40 C         143.5669  140.6113  160.7988 C.3     1  UNL1        0.1402
     41 H         141.7881  140.2498  158.5025 H       1  UNL1        0.2108
@<TRIPOS>BOND
     1    25    26    1
     2    26    27   ar
     3    27    28   ar
     4    28    29    2
     5    28    30   ar
     6    30    31   ar
     7    31    32   ar
     8    32    33   ar
     9    33    34    1
    10    33    35   ar
    11    35    36   ar
    12    36    37   ar
    13    32    38    1
    14    38    39    1
    15    38    24    1
    16    24     1    1
    17     1     2    1
    18     2     3    1
    19     3     4    1
    20     4     9    1
    21     9    11    1
    22    11    12    1
    23    12    13   ar
    24    13    14   ar
    25    14    15   ar
    26    15    16   ar
    27    16    17   ar
    28    16    18    1
    29    18    19   am
    30    19    20    2
    31    19    21    1
    32    21    22    1
    33     4     5    1
    34     5     6    1
    35     4     7    1
    36     7     8    1
    37    38    40    1
    38    37    26   ar
    39     6     1    1
    40    40    30    1
    41    37    31   ar
    42     8     1    1
    43    17    12   ar
    44    22    15    1
    45    39    41    1
    46     9    10    1
    47    18    23    1
@<TRIPOS>MOLECULE
*****
 41 47 0 0 0
SMALL
GASTEIGER

@<TRIPOS>ATOM
      1 C         140.4913  138.7093  160.8523 C.3     1  UNL1        0.0955
      2 C         141.7717  139.4371  160.5679 C.3     1  UNL1        0.0287
      3 C         142.2176  139.6448  159.1508 C.3     1  UNL1        0.0193
      4 C         141.3829  139.1247  158.0182 C.3     1  UNL1        0.0700
      5 C         140.1025  138.3969  158.3026 C.3     1  UNL1        0.0193
      6 C         139.6567  138.1892  159.7197 C.3     1  UNL1        0.0287
      7 C         141.0976  138.9866  158.7781 C.3     1  UNL1        0.1562
      8 O         140.6945  138.7988  160.0595 O.3     1  UNL1       -0.3571
      9 N         141.8287  139.3324  156.6012 N.3     1  UNL1       -0.2926
     10 H         142.1920  140.2837  156.5432 H       1  UNL1        0.1236
     11 C         142.8703  138.4338  156.0032 C.3     1  UNL1        0.1152
     12 C         142.6661  136.9478  155.9990 C.ar    1  UNL1        0.0765
     13 C         141.4799  136.3557  155.2973 C.ar    1  UNL1        0.0193
     14 C         141.2757  134.8697  155.2931 C.ar    1  UNL1        0.0411
     15 C         142.2577  133.9758  155.9904 C.ar    1  UNL1        0.1708
     16 C         143.4440  134.5677  156.6921 C.ar    1  UNL1        0.1682
     17 N         143.6482  136.0537  156.6963 N.ar    1  UNL1       -0.2304
     18 N         144.4260  133.6738  157.3894 N.am    1  UNL1       -0.2639
     19 C         144.2218  132.1877  157.3851 C.2     1  UNL1        0.2718
     20 O         145.2038  131.2937  158.0825 O.2     1  UNL1       -0.2707
     21 C         143.0355  131.5957  156.6835 C.3     1  UNL1        0.2898
     22 O         142.0534  132.4897  155.9861 O.3     1  UNL1       -0.4628
     23 H         145.2046  134.0623  157.8499 H       1  UNL1        0.1565
     24 C         140.0456  138.5016  162.2695 C.3     1  UNL1        0.0604
     25 C         141.1483  141.9404  168.4919 C.3     1  UNL1        0.0328
     26 C         141.4718  140.8693  167.4928 C.ar    1  UNL1        0.0019
     27 C         142.5907  139.9069  167.7610 C.ar    1  UNL1        0.0580
     28 C         142.9143  138.8359  166.7619 C.ar    1  UNL1        0.2608
     29 O         144.0332  137.8734  167.0301 O.2     1  UNL1       -0.2670
     30 N         142.1981  138.6156  165.4547 N.ar    1  UNL1       -0.2915
     31 C         141.1139  139.6439  165.3248 C.ar    1  UNL1        0.0803
     32 C         140.4100  139.4131  164.0204 C.ar    1  UNL1        0.0500
     33 C         139.2688  140.2990  163.6170 C.ar    1  UNL1        0.1588
     34 F         138.5649  140.0682  162.3127 F       1  UNL1       -0.2027
     35 C         138.8315  141.4157  164.5179 C.ar    1  UNL1        0.1282
     36 N         139.5354  141.6466  165.8222 N.ar    1  UNL1       -0.2404
     37 C         140.6765  140.7606  166.2257 C.ar    1  UNL1        0.0932
     38 C         141.0593  138.2421  163.3442 C.3     1  UNL1        0.1335
     39 O         141.4966  137.1253  162.4433 O.3     1  UNL1       -0.3806
     40 C         142.1644  137.7492  164.2306 C.3     1  UNL1        0.1402
     41 H         140.9414  137.1152  161.6480 H       1  UNL1        0.2108
@<TRIPOS>BOND
     1    25    26    1
     2    26    27   ar
     3    27    28   ar
     4    28    29    2
     5    28    30   ar
     6    30    31   ar
     7    31    32   ar
     8    32    33   ar
     9    33    34    1
    10    33    35   ar
    11    35    36   ar
    12    36    37   ar
    13    32    38    1
    14    38    39    1
    15    38    24    1
    16    24     1    1
    17     1     2    1
    18     2     3    1
    19     3     4    1
    20     4     9    1
    21     9    11    1
    22    11    12    1
    23    12    13   ar
    24    13    14   ar
    25    14    15   ar
    26    15    16   ar
    27    16    17   ar
    28    16    18    1
    29    18    19   am
    30    19    20    2
    31    19    21    1
    32    21    22    1
    33     4     5    1
    34     5     6    1
    35     4     7    1
    36     7     8    1
    37    38    40    1
    38    37    26   ar
    39     6     1    1
    40    40    30    1
    41    37    31   ar
    42     8     1    1
    43    17    12   ar
    44    22    15    1
    45    39    41    1
    46     9    10    1
    47    18    23    1
@<TRIPOS>MOLECULE
*****
 41 47 0 0 0
SMALL
GASTEIGER

@<TRIPOS>ATOM
      1 C         141.2077  139.4136  160.7252 C.3     1  UNL1        0.0955
      2 C         142.2745  138.4194  161.0768 C.3     1  UNL1        0.0287
      3 C         142.9213  137.6006  159.9992 C.3     1  UNL1        0.0193
      4 C         142.5014  137.7761  158.5700 C.3     1  UNL1        0.0700
      5 C         141.4347  138.7703  158.2183 C.3     1  UNL1        0.0193
      6 C         140.7878  139.5891  159.2959 C.3     1  UNL1        0.0287
      7 C         142.1181  138.2474  159.1258 C.3     1  UNL1        0.1562
      8 O         141.5332  138.9878  160.1002 O.3     1  UNL1       -0.3571
      9 N         143.1481  136.9574  157.4923 N.3     1  UNL1       -0.2926
     10 H         143.6956  136.2350  157.9599 H       1  UNL1        0.1236
     11 C         142.3011  136.2634  156.4672 C.3     1  UNL1        0.1152
     12 C         142.3395  134.7685  156.3500 C.ar    1  UNL1        0.0765
     13 C         141.4500  134.0704  155.3644 C.ar    1  UNL1        0.0193
     14 C         141.4884  132.5755  155.2472 C.ar    1  UNL1        0.0411
     15 C         142.4163  131.7787  156.1154 C.ar    1  UNL1        0.1708
     16 C         143.3060  132.4768  157.1010 C.ar    1  UNL1        0.1682
     17 N         143.2675  133.9717  157.2183 N.ar    1  UNL1       -0.2304
     18 N         144.2339  131.6800  157.9692 N.am    1  UNL1       -0.2639
     19 C         144.2723  130.1851  157.8520 C.2     1  UNL1        0.2718
     20 O         145.2003  129.3882  158.7202 O.2     1  UNL1       -0.2707
     21 C         143.3827  129.4869  156.8664 C.3     1  UNL1        0.2898
     22 O         142.4547  130.2838  155.9981 O.3     1  UNL1       -0.4628
     23 H         144.8177  132.1382  158.6161 H       1  UNL1        0.1565
     24 C         140.5609  140.2323  161.8029 C.3     1  UNL1        0.0604
     25 C         140.3014  141.5687  168.8674 C.3     1  UNL1        0.0328
     26 C         139.8850  140.8042  167.6459 C.ar    1  UNL1        0.0019
     27 C         138.8936  139.6848  167.7636 C.ar    1  UNL1        0.0580
     28 C         138.4772  138.9202  166.5421 C.ar    1  UNL1        0.2608
     29 O         137.4857  137.8007  166.6597 O.2     1  UNL1       -0.2670
     30 N         138.9750  139.1717  165.1423 N.ar    1  UNL1       -0.2915
     31 C         139.9514  140.3097  165.1798 C.ar    1  UNL1        0.0803
     32 C         140.4384  140.5489  163.7814 C.ar    1  UNL1        0.0500
     33 C         141.4340  141.6375  163.5098 C.ar    1  UNL1        0.1588
     34 F         141.9209  141.8767  162.1113 F       1  UNL1       -0.2027
     35 C         141.9426  142.4868  164.6366 C.ar    1  UNL1        0.1282
     36 N         141.4557  142.2476  166.0351 N.ar    1  UNL1       -0.2404
     37 C         140.4601  141.1590  166.3067 C.ar    1  UNL1        0.0932
     38 C         139.7628  139.5587  162.8796 C.3     1  UNL1        0.1335
     39 O         139.2541  138.7093  161.7527 O.3     1  UNL1       -0.3806
     40 C         138.8584  138.7075  163.7207 C.3     1  UNL1        0.1402
     41 H         139.6663  138.9936  160.9220 H       1  UNL1        0.2108
@<TRIPOS>BOND
     1    25    26    1
     2    26    27   ar
     3    27    28   ar
     4    28    29    2
     5    28    30   ar
     6    30    31   ar
     7    31    32   ar
     8    32    33   ar
     9    33    34    1
    10    33    35   ar
    11    35    36   ar
    12    36    37   ar
    13    32    38    1
    14    38    39    1
    15    38    24    1
    16    24     1    1
    17     1     2    1
    18     2     3    1
    19     3     4    1
    20     4     9    1
    21     9    11    1
    22    11    12    1
    23    12    13   ar
    24    13    14   ar
    25    14    15   ar
    26    15    16   ar
    27    16    17   ar
    28    16    18    1
    29    18    19   am
    30    19    20    2
    31    19    21    1
    32    21    22    1
    33     4     5    1
    34     5     6    1
    35     4     7    1
    36     7     8    1
    37    38    40    1
    38    37    26   ar
    39     6     1    1
    40    40    30    1
    41    37    31   ar
    42     8     1    1
    43    17    12   ar
    44    22    15    1
    45    39    41    1
    46     9    10    1
    47    18    23    1
@<TRIPOS>MOLECULE
*****
 41 47 0 0 0
SMALL
GASTEIGER

@<TRIPOS>ATOM
      1 C         141.8429  138.3149  162.0628 C.3     1  UNL1        0.0955
      2 C         142.2982  138.0146  163.4602 C.3     1  UNL1        0.0287
      3 C         141.2974  137.6280  164.5084 C.3     1  UNL1        0.0193
      4 C         139.8411  137.5417  164.1593 C.3     1  UNL1        0.0700
      5 C         139.3858  137.8421  162.7620 C.3     1  UNL1        0.0193
      6 C         140.3867  138.2287  161.7137 C.3     1  UNL1        0.0287
      7 C         140.3524  137.7577  163.5510 C.3     1  UNL1        0.1562
      8 O         141.2574  138.1073  162.6032 O.3     1  UNL1       -0.3571
      9 N         138.8402  137.1552  165.2074 N.3     1  UNL1       -0.2926
     10 H         139.3031  136.4881  165.8247 H       1  UNL1        0.1236
     11 C         138.2300  138.2068  166.0859 C.3     1  UNL1        0.1152
     12 C         138.6546  139.6388  165.9474 C.ar    1  UNL1        0.0765
     13 C         139.6519  140.2212  166.9046 C.ar    1  UNL1        0.0193
     14 C         140.0765  141.6532  166.7661 C.ar    1  UNL1        0.0411
     15 C         139.5038  142.5026  165.6706 C.ar    1  UNL1        0.1708
     16 C         138.5065  141.9203  164.7134 C.ar    1  UNL1        0.1682
     17 N         138.0819  140.4883  164.8518 N.ar    1  UNL1       -0.2304
     18 N         137.9338  142.7697  163.6179 N.am    1  UNL1       -0.2639
     19 C         138.3584  144.2017  163.4794 C.2     1  UNL1        0.2718
     20 O         137.7857  145.0513  162.3838 O.2     1  UNL1       -0.2707
     21 C         139.3557  144.7842  164.4366 C.3     1  UNL1        0.2898
     22 O         139.9284  143.9347  165.5322 O.3     1  UNL1       -0.4628
     23 H         137.2792  142.3874  162.9896 H       1  UNL1        0.1565
     24 C         142.8439  138.7015  161.0146 C.3     1  UNL1        0.0604
     25 C         142.8869  141.0696  154.2212 C.3     1  UNL1        0.0328
     26 C         142.8929  141.2942  155.7043 C.ar    1  UNL1        0.0019
     27 C         142.9225  142.6906  156.2512 C.ar    1  UNL1        0.0580
     28 C         142.9286  142.9152  157.7342 C.ar    1  UNL1        0.2608
     29 O         142.9582  144.3117  158.2812 O.2     1  UNL1       -0.2670
     30 N         142.9070  141.8324  158.7818 N.ar    1  UNL1       -0.2915
     31 C         142.8786  140.5008  158.0919 C.ar    1  UNL1        0.0803
     32 C         142.8574  139.4333  159.1454 C.ar    1  UNL1        0.0500
     33 C         142.8269  137.9874  158.7475 C.ar    1  UNL1        0.1588
     34 F         142.8056  136.9198  159.8011 F       1  UNL1       -0.2027
     35 C         142.8177  137.6090  157.2961 C.ar    1  UNL1        0.1282
     36 N         142.8389  138.6765  156.2426 N.ar    1  UNL1       -0.2404
     37 C         142.8694  140.1224  156.6404 C.ar    1  UNL1        0.0932
     38 C         142.8726  140.1052  160.4864 C.3     1  UNL1        0.1335
     39 O         142.8818  140.4836  161.9379 O.3     1  UNL1       -0.3806
     40 C         142.9033  141.5879  160.2617 C.3     1  UNL1        0.1402
     41 H         142.8656  139.6805  162.4816 H       1  UNL1        0.2108
@<TRIPOS>BOND
     1    25    26    1
     2    26    27   ar
     3    27    28   ar
     4    28    29    2
     5    28    30   ar
     6    30    31   ar
     7    31    32   ar
     8    32    33   ar
     9    33    34    1
    10    33    35   ar
    11    35    36   ar
    12    36    37   ar
    13    32    38    1
    14    38    39    1
    15    38    24    1
    16    24     1    1
    17     1     2    1
    18     2     3    1
    19     3     4    1
    20     4     9    1
    21     9    11    1
    22    11    12    1
    23    12    13   ar
    24    13    14   ar
    25    14    15   ar
    26    15    16   ar
    27    16    17   ar
    28    16    18    1
    29    18    19   am
    30    19    20    2
    31    19    21    1
    32    21    22    1
    33     4     5    1
    34     5     6    1
    35     4     7    1
    36     7     8    1
    37    38    40    1
    38    37    26   ar
    39     6     1    1
    40    40    30    1
    41    37    31   ar
    42     8     1    1
    43    17    12   ar
    44    22    15    1
    45    39    41    1
    46     9    10    1
    47    18    23    1
@<TRIPOS>MOLECULE
*****
 41 47 0 0 0
SMALL
GASTEIGER

@<TRIPOS>ATOM
      1 C         140.4208  143.3334  162.1702 C.3     1  UNL1        0.0955
      2 C         139.6895  142.1765  161.5564 C.3     1  UNL1        0.0287
      3 C         138.7892  141.3248  162.4015 C.3     1  UNL1        0.0193
      4 C         138.6203  141.6301  163.8603 C.3     1  UNL1        0.0700
      5 C         139.3517  142.7871  164.4741 C.3     1  UNL1        0.0193
      6 C         140.2519  143.6387  163.6290 C.3     1  UNL1        0.0287
      7 C         139.1245  142.1251  163.4376 C.3     1  UNL1        0.1562
      8 O         139.9386  142.8953  162.6734 O.3     1  UNL1       -0.3571
      9 N         137.7201  140.7785  164.7055 N.3     1  UNL1       -0.2926
     10 H         136.9677  140.4530  164.0986 H       1  UNL1        0.1236
     11 C         138.2688  139.5686  165.4019 C.3     1  UNL1        0.1152
     12 C         139.4791  139.6926  166.2793 C.ar    1  UNL1        0.0765
     13 C         140.7931  139.1264  165.8290 C.ar    1  UNL1        0.0193
     14 C         142.0033  139.2504  166.7064 C.ar    1  UNL1        0.0411
     15 C         141.8997  139.9405  168.0340 C.ar    1  UNL1        0.1708
     16 C         140.5857  140.5068  168.4845 C.ar    1  UNL1        0.1682
     17 N         139.3754  140.3828  167.6071 N.ar    1  UNL1       -0.2304
     18 N         140.4820  141.1969  169.8122 N.am    1  UNL1       -0.2639
     19 C         141.6923  141.3209  170.6895 C.2     1  UNL1        0.2718
     20 O         141.5887  142.0111  172.0173 O.2     1  UNL1       -0.2707
     21 C         143.0063  140.7547  170.2392 C.3     1  UNL1        0.2898
     22 O         143.1100  140.0645  168.9115 O.3     1  UNL1       -0.4628
     23 H         139.6196  141.5686  170.1077 H       1  UNL1        0.1565
     24 C         141.3211  144.1851  161.3250 C.3     1  UNL1        0.0604
     25 C         143.3268  144.1989  154.4158 C.3     1  UNL1        0.0328
     26 C         142.4517  144.6590  155.5439 C.ar    1  UNL1        0.0019
     27 C         141.3546  145.6489  155.2863 C.ar    1  UNL1        0.0580
     28 C         140.4795  146.1089  156.4144 C.ar    1  UNL1        0.2608
     29 O         139.3823  147.0989  156.1569 O.2     1  UNL1       -0.2670
     30 N         140.5933  145.6587  157.8478 N.ar    1  UNL1       -0.2915
     31 C         141.7239  144.6784  157.9522 C.ar    1  UNL1        0.0803
     32 C         141.8257  144.2390  159.3828 C.ar    1  UNL1        0.0500
     33 C         142.8774  143.2503  159.7907 C.ar    1  UNL1        0.1588
     34 F         142.9792  142.8109  161.2212 F       1  UNL1       -0.2027
     35 C         143.8273  142.7010  158.7679 C.ar    1  UNL1        0.1282
     36 N         143.7255  143.1405  157.3374 N.ar    1  UNL1       -0.2404
     37 C         142.6738  144.1291  156.9295 C.ar    1  UNL1        0.0932
     38 C         140.7581  144.9477  160.1625 C.3     1  UNL1        0.1335
     39 O         139.8081  145.4970  161.1852 O.3     1  UNL1       -0.3806
     40 C         139.9964  145.8251  159.2138 C.3     1  UNL1        0.1402
     41 H         140.0094  145.1127  162.0528 H       1  UNL1        0.2108
@<TRIPOS>BOND
     1    25    26    1
     2    26    27   ar
     3    27    28   ar
     4    28    29    2
     5    28    30   ar
     6    30    31   ar
     7    31    32   ar
     8    32    33   ar
     9    33    34    1
    10    33    35   ar
    11    35    36   ar
    12    36    37   ar
    13    32    38    1
    14    38    39    1
    15    38    24    1
    16    24     1    1
    17     1     2    1
    18     2     3    1
    19     3     4    1
    20     4     9    1
    21     9    11    1
    22    11    12    1
    23    12    13   ar
    24    13    14   ar
    25    14    15   ar
    26    15    16   ar
    27    16    17   ar
    28    16    18    1
    29    18    19   am
    30    19    20    2
    31    19    21    1
    32    21    22    1
    33     4     5    1
    34     5     6    1
    35     4     7    1
    36     7     8    1
    37    38    40    1
    38    37    26   ar
    39     6     1    1
    40    40    30    1
    41    37    31   ar
    42     8     1    1
    43    17    12   ar
    44    22    15    1
    45    39    41    1
    46     9    10    1
    47    18    23    1
