@<TRIPOS>MOLECULE
*****
 32 35 0 0 0
SMALL
GASTEIGER

@<TRIPOS>ATOM
      1 N         143.4723  138.6517  166.9568 N.pl3   1  UNL1       -0.2820
      2 H         144.1498  138.0745  167.3778 H       1  UNL1        0.1551
      3 C         141.8059  137.9515  163.4237 C.ar    1  UNL1        0.0491
      4 C         142.0135  137.9988  164.9085 C.ar    1  UNL1        0.0487
      5 C         143.2647  138.6044  165.4719 C.ar    1  UNL1        0.1345
      6 N         144.3084  139.1629  164.5506 N.ar    1  UNL1       -0.2290
      7 C         144.1008  139.1156  163.0658 C.ar    1  UNL1        0.1016
      8 C         142.8495  138.5099  162.5024 C.ar    1  UNL1        0.0354
      9 C         142.6419  138.4627  161.0175 C.ar    1  UNL1        0.0423
     10 C         142.0005  139.5310  160.1825 C.ar    1  UNL1        0.1217
     11 N         142.0015  139.0673  158.7559 N.ar    1  UNL1       -0.1676
     12 N         142.6436  137.7125  158.7093 N.ar    1  UNL1       -0.2473
     13 C         142.8531  136.8779  157.4807 C.3     1  UNL1        0.1538
     14 C         143.0394  137.3388  160.1070 C.ar    1  UNL1        0.0968
     15 C         139.2224  137.6792  163.4637 C.3     1  UNL1        0.1085
     16 N         140.5546  137.3458  162.8603 N.pl3   1  UNL1       -0.3312
     17 H         140.6077  136.7295  162.0944 H       1  UNL1        0.1469
     18 C         142.6477  139.5783  167.8002 C.ar    1  UNL1        0.1558
     19 C         142.4031  139.2593  169.2454 C.ar    1  UNL1        0.1342
     20 N         141.5785  140.1859  170.0889 N.ar    1  UNL1       -0.2263
     21 C         140.9985  141.4316  169.4871 C.ar    1  UNL1        0.2025
     22 C         141.2431  141.7505  168.0420 C.ar    1  UNL1        0.2543
     23 N         142.0677  140.8239  167.1986 N.ar    1  UNL1       -0.1931
     24 C         140.1739  142.3582  170.3305 C.1     1  UNL1        0.1246
     25 N         139.3493  143.2848  171.1740 N.1     1  UNL1       -0.1891
     26 O         140.6631  142.9962  167.4403 O.3     1  UNL1       -0.4610
     27 C         139.8291  142.9102  166.1965 C.3     1  UNL1        0.1849
     28 C         139.4598  144.0560  165.3016 C.3     1  UNL1        0.0623
     29 C         138.6204  143.5173  164.1813 C.3     1  UNL1        0.0760
     30 N         138.4710  142.0385  164.3838 N.3     1  UNL1       -0.2684
     31 C         137.7084  141.0997  163.4965 C.3     1  UNL1        0.0897
     32 C         139.2180  141.6633  165.6292 C.3     1  UNL1        0.1163
@<TRIPOS>BOND
     1    15    16    1
     2    16     3    1
     3     3     4   ar
     4     4     5   ar
     5     5     1    1
     6     1    18    1
     7    18    19   ar
     8    19    20   ar
     9    20    21   ar
    10    21    24    1
    11    24    25    3
    12    21    22   ar
    13    22    26    1
    14    27    26    1
    15    27    28    1
    16    28    29    1
    17    29    30    1
    18    30    31    1
    19    30    32    1
    20    22    23   ar
    21     5     6   ar
    22     6     7   ar
    23     7     8   ar
    24     8     9    1
    25     9    10   ar
    26    10    11   ar
    27    11    12   ar
    28    12    13    1
    29    12    14   ar
    30     8     3   ar
    31    14     9   ar
    32    23    18   ar
    33    32    27    1
    34    16    17    1
    35     1     2    1
@<TRIPOS>MOLECULE
*****
 32 35 0 0 0
SMALL
GASTEIGER

@<TRIPOS>ATOM
      1 N         138.4787  139.1641  159.5915 N.pl3   1  UNL1       -0.2820
      2 H         137.6398  139.3785  159.1228 H       1  UNL1        0.1551
      3 C         137.9646  140.3872  163.3319 C.ar    1  UNL1        0.0491
      4 C         137.9119  140.3488  161.8333 C.ar    1  UNL1        0.0487
      5 C         138.5314  139.2025  161.0902 C.ar    1  UNL1        0.1345
      6 N         139.2036  138.0946  161.8456 N.ar    1  UNL1       -0.2290
      7 C         139.2563  138.1330  163.3441 C.ar    1  UNL1        0.1016
      8 C         138.6368  139.2793  164.0873 C.ar    1  UNL1        0.0354
      9 C         138.6895  139.3176  165.5859 C.ar    1  UNL1        0.0423
     10 C         137.7612  138.5989  166.5195 C.ar    1  UNL1        0.1217
     11 N         138.1778  138.9185  167.9246 N.ar    1  UNL1       -0.1676
     12 N         139.3636  139.8348  167.8594 N.ar    1  UNL1       -0.2473
     13 C         140.1033  140.4044  169.0334 C.3     1  UNL1        0.1538
     14 C         139.6799  140.0815  166.4140 C.ar    1  UNL1        0.0968
     15 C         138.0686  142.8439  164.1706 C.3     1  UNL1        0.1085
     16 N         137.3451  141.5334  164.0750 N.pl3   1  UNL1       -0.3312
     17 H         136.4636  141.4257  164.5000 H       1  UNL1        0.1469
     18 C         139.7040  138.7991  158.8071 C.ar    1  UNL1        0.1558
     19 C         139.5783  138.3768  157.3732 C.ar    1  UNL1        0.1342
     20 N         140.8036  138.0118  156.5887 N.ar    1  UNL1       -0.2263
     21 C         142.1546  138.0691  157.2382 C.ar    1  UNL1        0.2025
     22 C         142.2802  138.4914  158.6720 C.ar    1  UNL1        0.2543
     23 N         141.0549  138.8564  159.4564 N.ar    1  UNL1       -0.1931
     24 C         143.3799  137.7041  156.4537 C.1     1  UNL1        0.1246
     25 N         144.6052  137.3391  155.6693 N.1     1  UNL1       -0.1891
     26 O         143.6312  138.5487  159.3214 O.3     1  UNL1       -0.4610
     27 C         143.7642  139.0350  160.7341 C.3     1  UNL1        0.1849
     28 C         143.6885  138.1872  161.9692 C.3     1  UNL1        0.0623
     29 C         143.8738  139.0827  163.1582 C.3     1  UNL1        0.0760
     30 N         144.0640  140.4840  162.6579 N.3     1  UNL1       -0.2684
     31 C         144.2834  141.7011  163.5067 C.3     1  UNL1        0.0897
     32 C         143.9963  140.4545  161.1597 C.3     1  UNL1        0.1163
@<TRIPOS>BOND
     1    15    16    1
     2    16     3    1
     3     3     4   ar
     4     4     5   ar
     5     5     1    1
     6     1    18    1
     7    18    19   ar
     8    19    20   ar
     9    20    21   ar
    10    21    24    1
    11    24    25    3
    12    21    22   ar
    13    22    26    1
    14    27    26    1
    15    27    28    1
    16    28    29    1
    17    29    30    1
    18    30    31    1
    19    30    32    1
    20    22    23   ar
    21     5     6   ar
    22     6     7   ar
    23     7     8   ar
    24     8     9    1
    25     9    10   ar
    26    10    11   ar
    27    11    12   ar
    28    12    13    1
    29    12    14   ar
    30     8     3   ar
    31    14     9   ar
    32    23    18   ar
    33    32    27    1
    34    16    17    1
    35     1     2    1
@<TRIPOS>MOLECULE
*****
 32 35 0 0 0
SMALL
GASTEIGER

@<TRIPOS>ATOM
      1 N         143.0052  138.8001  166.8131 N.pl3   1  UNL1       -0.2820
      2 H         143.5092  138.1191  167.3145 H       1  UNL1        0.1551
      3 C         143.5917  139.1517  162.9038 C.ar    1  UNL1        0.0491
      4 C         143.7819  139.2984  164.3844 C.ar    1  UNL1        0.0487
      5 C         142.8149  138.6533  165.3324 C.ar    1  UNL1        0.1345
      6 N         141.6576  137.8616  164.7998 N.ar    1  UNL1       -0.2290
      7 C         141.4673  137.7148  163.3192 C.ar    1  UNL1        0.1016
      8 C         142.4344  138.3599  162.3712 C.ar    1  UNL1        0.0354
      9 C         142.2441  138.2131  160.8905 C.ar    1  UNL1        0.0423
     10 C         141.2663  138.9765  160.0473 C.ar    1  UNL1        0.1217
     11 N         141.4161  138.5124  158.6288 N.ar    1  UNL1       -0.1676
     12 N         142.4865  137.4620  158.5954 N.ar    1  UNL1       -0.2473
     13 C         142.9617  136.7259  157.3779 C.3     1  UNL1        0.1538
     14 C         142.9982  137.2771  159.9932 C.ar    1  UNL1        0.0968
     15 C         144.4892  141.2736  161.7031 C.3     1  UNL1        0.1085
     16 N         144.5587  139.7967  161.9558 N.pl3   1  UNL1       -0.3312
     17 H         145.2390  139.2507  161.4994 H       1  UNL1        0.1469
     18 C         142.4275  139.9845  167.5297 C.ar    1  UNL1        0.1558
     19 C         142.6907  140.1768  168.9939 C.ar    1  UNL1        0.1342
     20 N         142.1130  141.3611  169.7106 N.ar    1  UNL1       -0.2263
     21 C         141.2721  142.3532  168.9630 C.ar    1  UNL1        0.2025
     22 C         141.0090  142.1609  167.4989 C.ar    1  UNL1        0.2543
     23 N         141.5867  140.9765  166.7822 N.ar    1  UNL1       -0.1931
     24 C         140.6945  143.5376  169.6796 C.1     1  UNL1        0.1246
     25 N         140.1168  144.7220  170.3962 N.1     1  UNL1       -0.1891
     26 O         140.1682  143.1530  166.7513 O.3     1  UNL1       -0.4610
     27 C         139.9014  142.9583  165.2881 C.3     1  UNL1        0.1849
     28 C         140.7964  143.3883  164.1638 C.3     1  UNL1        0.0623
     29 C         140.1409  142.9952  162.8732 C.3     1  UNL1        0.0760
     30 N         138.8407  142.3223  163.1998 N.3     1  UNL1       -0.2684
     31 C         137.8606  141.7692  162.2081 C.3     1  UNL1        0.0897
     32 C         138.6927  142.2995  164.6923 C.3     1  UNL1        0.1163
@<TRIPOS>BOND
     1    15    16    1
     2    16     3    1
     3     3     4   ar
     4     4     5   ar
     5     5     1    1
     6     1    18    1
     7    18    19   ar
     8    19    20   ar
     9    20    21   ar
    10    21    24    1
    11    24    25    3
    12    21    22   ar
    13    22    26    1
    14    27    26    1
    15    27    28    1
    16    28    29    1
    17    29    30    1
    18    30    31    1
    19    30    32    1
    20    22    23   ar
    21     5     6   ar
    22     6     7   ar
    23     7     8   ar
    24     8     9    1
    25     9    10   ar
    26    10    11   ar
    27    11    12   ar
    28    12    13    1
    29    12    14   ar
    30     8     3   ar
    31    14     9   ar
    32    23    18   ar
    33    32    27    1
    34    16    17    1
    35     1     2    1
@<TRIPOS>MOLECULE
*****
 32 35 0 0 0
SMALL
GASTEIGER

@<TRIPOS>ATOM
      1 N         142.6160  142.6781  165.7433 N.pl3   1  UNL1       -0.2820
      2 H         143.5503  142.8605  165.9946 H       1  UNL1        0.1551
      3 C         140.3501  144.0987  162.8111 C.ar    1  UNL1        0.0491
      4 C         140.8365  143.7580  164.1885 C.ar    1  UNL1        0.0487
      5 C         142.1296  143.0189  164.3658 C.ar    1  UNL1        0.1345
      6 N         142.9364  142.6204  163.1657 N.ar    1  UNL1       -0.2290
      7 C         142.4500  142.9611  161.7883 C.ar    1  UNL1        0.1016
      8 C         141.1568  143.7003  161.6110 C.ar    1  UNL1        0.0354
      9 C         140.6705  144.0410  160.2335 C.ar    1  UNL1        0.0423
     10 C         139.7978  143.1805  159.3687 C.ar    1  UNL1        0.1217
     11 N         139.5594  143.9097  158.0797 N.ar    1  UNL1       -0.1676
     12 N         140.2848  145.2209  158.1479 N.ar    1  UNL1       -0.2473
     13 C         140.3176  146.2673  157.0737 C.3     1  UNL1        0.1538
     14 C         140.9714  145.3020  159.4790 C.ar    1  UNL1        0.0968
     15 C         137.7744  144.2334  163.1234 C.3     1  UNL1        0.1085
     16 N         139.0569  144.8379  162.6339 N.pl3   1  UNL1       -0.3312
     17 H         139.0500  145.7197  162.1962 H       1  UNL1        0.1469
     18 C         141.6789  142.0596  166.7379 C.ar    1  UNL1        0.1558
     19 C         141.7343  142.4734  168.1787 C.ar    1  UNL1        0.1342
     20 N         140.7972  141.8549  169.1733 N.ar    1  UNL1       -0.2263
     21 C         139.8047  140.8224  168.7271 C.ar    1  UNL1        0.2025
     22 C         139.7493  140.4086  167.2864 C.ar    1  UNL1        0.2543
     23 N         140.6864  141.0272  166.2918 N.ar    1  UNL1       -0.1931
     24 C         138.8676  140.2039  169.7217 C.1     1  UNL1        0.1246
     25 N         137.9305  139.5853  170.7162 N.1     1  UNL1       -0.1891
     26 O         138.7567  139.3762  166.8402 O.3     1  UNL1       -0.4610
     27 C         138.6907  138.9738  165.3967 C.3     1  UNL1        0.1849
     28 C         139.1789  137.6782  164.8194 C.3     1  UNL1        0.0623
     29 C         138.9148  137.7000  163.3430 C.3     1  UNL1        0.0760
     30 N         138.2635  139.0090  163.0078 N.3     1  UNL1       -0.2684
     31 C         137.8273  139.4529  161.6430 C.3     1  UNL1        0.0897
     32 C         138.1250  139.7962  164.2771 C.3     1  UNL1        0.1163
@<TRIPOS>BOND
     1    15    16    1
     2    16     3    1
     3     3     4   ar
     4     4     5   ar
     5     5     1    1
     6     1    18    1
     7    18    19   ar
     8    19    20   ar
     9    20    21   ar
    10    21    24    1
    11    24    25    3
    12    21    22   ar
    13    22    26    1
    14    27    26    1
    15    27    28    1
    16    28    29    1
    17    29    30    1
    18    30    31    1
    19    30    32    1
    20    22    23   ar
    21     5     6   ar
    22     6     7   ar
    23     7     8   ar
    24     8     9    1
    25     9    10   ar
    26    10    11   ar
    27    11    12   ar
    28    12    13    1
    29    12    14   ar
    30     8     3   ar
    31    14     9   ar
    32    23    18   ar
    33    32    27    1
    34    16    17    1
    35     1     2    1
@<TRIPOS>MOLECULE
*****
 32 35 0 0 0
SMALL
GASTEIGER

@<TRIPOS>ATOM
      1 N         138.3615  138.7633  164.0212 N.pl3   1  UNL1       -0.2820
      2 H         137.9938  137.8676  163.8429 H       1  UNL1        0.1551
      3 C         138.2262  142.0633  161.8207 C.ar    1  UNL1        0.0491
      4 C         138.0045  141.1045  162.9528 C.ar    1  UNL1        0.0487
      5 C         138.5832  139.7221  162.8891 C.ar    1  UNL1        0.1345
      6 N         139.3835  139.2984  161.6933 N.ar    1  UNL1       -0.2290
      7 C         139.6052  140.2572  160.5612 C.ar    1  UNL1        0.1016
      8 C         139.0265  141.6396  160.6250 C.ar    1  UNL1        0.0354
      9 C         139.2482  142.5984  159.4928 C.ar    1  UNL1        0.0423
     10 C         140.2016  143.7564  159.4920 C.ar    1  UNL1        0.1217
     11 N         140.0981  144.4411  158.1614 N.ar    1  UNL1       -0.1676
     12 N         139.0806  143.7063  157.3399 N.ar    1  UNL1       -0.2473
     13 C         138.6619  144.0500  155.9411 C.3     1  UNL1        0.1538
     14 C         138.5554  142.5675  158.1628 C.ar    1  UNL1        0.0968
     15 C         137.8107  144.2705  163.1266 C.3     1  UNL1        0.1085
     16 N         137.6475  143.4457  161.8845 N.pl3   1  UNL1       -0.3312
     17 H         137.1607  143.8117  161.1110 H       1  UNL1        0.1469
     18 C         138.6999  139.1693  165.4250 C.ar    1  UNL1        0.1558
     19 C         137.8940  138.6395  166.5739 C.ar    1  UNL1        0.1342
     20 N         138.2325  139.0455  167.9777 N.ar    1  UNL1       -0.2263
     21 C         139.3769  139.9812  168.2326 C.ar    1  UNL1        0.2025
     22 C         140.1827  140.5109  167.0837 C.ar    1  UNL1        0.2543
     23 N         139.8442  140.1050  165.6799 N.ar    1  UNL1       -0.1931
     24 C         139.7153  140.3872  169.6364 C.1     1  UNL1        0.1246
     25 N         140.0538  140.7932  171.0401 N.1     1  UNL1       -0.1891
     26 O         141.3270  141.4467  167.3385 O.3     1  UNL1       -0.4610
     27 C         141.8357  142.3273  166.2359 C.3     1  UNL1        0.1849
     28 C         143.2528  142.4020  165.7498 C.3     1  UNL1        0.0623
     29 C         143.3094  143.4086  164.6392 C.3     1  UNL1        0.0760
     30 N         141.9273  143.9561  164.4390 N.3     1  UNL1       -0.2684
     31 C         141.5264  144.9903  163.4292 C.3     1  UNL1        0.0897
     32 C         141.0165  143.2878  165.4258 C.3     1  UNL1        0.1163
@<TRIPOS>BOND
     1    15    16    1
     2    16     3    1
     3     3     4   ar
     4     4     5   ar
     5     5     1    1
     6     1    18    1
     7    18    19   ar
     8    19    20   ar
     9    20    21   ar
    10    21    24    1
    11    24    25    3
    12    21    22   ar
    13    22    26    1
    14    27    26    1
    15    27    28    1
    16    28    29    1
    17    29    30    1
    18    30    31    1
    19    30    32    1
    20    22    23   ar
    21     5     6   ar
    22     6     7   ar
    23     7     8   ar
    24     8     9    1
    25     9    10   ar
    26    10    11   ar
    27    11    12   ar
    28    12    13    1
    29    12    14   ar
    30     8     3   ar
    31    14     9   ar
    32    23    18   ar
    33    32    27    1
    34    16    17    1
    35     1     2    1
@<TRIPOS>MOLECULE
*****
 32 35 0 0 0
SMALL
GASTEIGER

@<TRIPOS>ATOM
      1 N         143.7067  138.7618  159.4830 N.pl3   1  UNL1       -0.2820
      2 H         144.5933  138.9285  159.0888 H       1  UNL1        0.1551
      3 C         142.3609  137.9574  163.1288 C.ar    1  UNL1        0.0491
      4 C         142.5424  137.9025  161.6408 C.ar    1  UNL1        0.0487
      5 C         143.5251  138.8166  160.9710 C.ar    1  UNL1        0.1345
      6 N         144.3263  139.7856  161.7891 N.ar    1  UNL1       -0.2290
      7 C         144.1447  139.8404  163.2770 C.ar    1  UNL1        0.1016
      8 C         143.1620  138.9263  163.9468 C.ar    1  UNL1        0.0354
      9 C         142.9805  138.9812  165.4349 C.ar    1  UNL1        0.0423
     10 C         143.7899  138.2302  166.4501 C.ar    1  UNL1        0.1217
     11 N         143.2673  138.5816  167.8115 N.ar    1  UNL1       -0.1676
     12 N         142.1348  139.5497  167.6377 N.ar    1  UNL1       -0.2473
     13 C         141.3223  140.1632  168.7392 C.3     1  UNL1        0.1538
     14 C         141.9576  139.7967  166.1688 C.ar    1  UNL1        0.0968
     15 C         139.9496  137.4694  163.9638 C.3     1  UNL1        0.1085
     16 N         141.3782  137.0432  163.7986 N.pl3   1  UNL1       -0.3312
     17 H         141.6709  136.1635  164.1299 H       1  UNL1        0.1469
     18 C         142.5374  138.4529  158.5957 C.ar    1  UNL1        0.1558
     19 C         142.7014  137.5117  157.4392 C.ar    1  UNL1        0.1342
     20 N         141.5321  137.2028  156.5519 N.ar    1  UNL1       -0.2263
     21 C         140.1987  137.8352  156.8210 C.ar    1  UNL1        0.2025
     22 C         140.0347  138.7763  157.9774 C.ar    1  UNL1        0.2543
     23 N         141.2041  139.0852  158.8648 N.ar    1  UNL1       -0.1931
     24 C         139.0294  137.5263  155.9337 C.1     1  UNL1        0.1246
     25 N         137.8601  137.2174  155.0464 N.1     1  UNL1       -0.1891
     26 O         138.7014  139.4086  158.2466 O.3     1  UNL1       -0.4610
     27 C         138.4225  140.0311  159.5825 C.3     1  UNL1        0.1849
     28 C         138.0486  139.2974  160.8363 C.3     1  UNL1        0.0623
     29 C         137.8635  140.3094  161.9279 C.3     1  UNL1        0.0760
     30 N         138.1230  141.6685  161.3487 N.3     1  UNL1       -0.2684
     31 C         138.0499  142.9710  162.0891 C.3     1  UNL1        0.0897
     32 C         138.4685  141.4965  159.8992 C.3     1  UNL1        0.1163
@<TRIPOS>BOND
     1    15    16    1
     2    16     3    1
     3     3     4   ar
     4     4     5   ar
     5     5     1    1
     6     1    18    1
     7    18    19   ar
     8    19    20   ar
     9    20    21   ar
    10    21    24    1
    11    24    25    3
    12    21    22   ar
    13    22    26    1
    14    27    26    1
    15    27    28    1
    16    28    29    1
    17    29    30    1
    18    30    31    1
    19    30    32    1
    20    22    23   ar
    21     5     6   ar
    22     6     7   ar
    23     7     8   ar
    24     8     9    1
    25     9    10   ar
    26    10    11   ar
    27    11    12   ar
    28    12    13    1
    29    12    14   ar
    30     8     3   ar
    31    14     9   ar
    32    23    18   ar
    33    32    27    1
    34    16    17    1
    35     1     2    1
@<TRIPOS>MOLECULE
*****
 32 35 0 0 0
SMALL
GASTEIGER

@<TRIPOS>ATOM
      1 N         138.6109  139.2146  167.1567 N.pl3   1  UNL1       -0.2820
      2 H         138.0152  138.5957  167.6375 H       1  UNL1        0.1551
      3 C         138.2927  140.5606  163.4368 C.ar    1  UNL1        0.0491
      4 C         138.2984  140.5272  164.9364 C.ar    1  UNL1        0.0487
      5 C         138.6053  139.2479  165.6570 C.ar    1  UNL1        0.1345
      6 N         138.9066  138.0020  164.8780 N.ar    1  UNL1       -0.2290
      7 C         138.9010  138.0354  163.3784 C.ar    1  UNL1        0.1016
      8 C         138.5940  139.3147  162.6578 C.ar    1  UNL1        0.0354
      9 C         138.5884  139.3480  161.1582 C.ar    1  UNL1        0.0423
     10 C         137.5399  139.9840  160.2943 C.ar    1  UNL1        0.1217
     11 N         137.9338  139.7802  158.8614 N.ar    1  UNL1       -0.1676
     12 N         139.2258  139.0183  158.8396 N.ar    1  UNL1       -0.2473
     13 C         139.9806  138.5974  157.6136 C.3     1  UNL1        0.1538
     14 C         139.6303  138.7512  160.2591 C.ar    1  UNL1        0.0968
     15 C         137.7357  143.0975  163.4944 C.3     1  UNL1        0.1085
     16 N         137.9858  141.8399  162.7163 N.pl3   1  UNL1       -0.3312
     17 H         137.9485  141.8540  161.7326 H       1  UNL1        0.1469
     18 C         139.5243  140.1243  167.9236 C.ar    1  UNL1        0.1558
     19 C         139.2424  140.4286  169.3652 C.ar    1  UNL1        0.1342
     20 N         140.1558  141.3383  170.1321 N.ar    1  UNL1       -0.2263
     21 C         141.3511  141.9436  169.4575 C.ar    1  UNL1        0.2025
     22 C         141.6329  141.6393  168.0161 C.ar    1  UNL1        0.2543
     23 N         140.7195  140.7296  167.2491 N.ar    1  UNL1       -0.1931
     24 C         142.2645  142.8533  170.2245 C.1     1  UNL1        0.1246
     25 N         143.1778  143.7630  170.9914 N.1     1  UNL1       -0.1891
     26 O         142.8282  142.2446  167.3415 O.3     1  UNL1       -0.4610
     27 C         142.8606  142.3741  165.8475 C.3     1  UNL1        0.1849
     28 C         143.8811  141.7658  164.9317 C.3     1  UNL1        0.0623
     29 C         143.5295  142.1503  163.5251 C.3     1  UNL1        0.0760
     30 N         142.2917  142.9964  163.5716 N.3     1  UNL1       -0.2684
     31 C         141.5903  143.5985  162.3902 C.3     1  UNL1        0.0897
     32 C         141.8783  143.1346  165.0069 C.3     1  UNL1        0.1163
@<TRIPOS>BOND
     1    15    16    1
     2    16     3    1
     3     3     4   ar
     4     4     5   ar
     5     5     1    1
     6     1    18    1
     7    18    19   ar
     8    19    20   ar
     9    20    21   ar
    10    21    24    1
    11    24    25    3
    12    21    22   ar
    13    22    26    1
    14    27    26    1
    15    27    28    1
    16    28    29    1
    17    29    30    1
    18    30    31    1
    19    30    32    1
    20    22    23   ar
    21     5     6   ar
    22     6     7   ar
    23     7     8   ar
    24     8     9    1
    25     9    10   ar
    26    10    11   ar
    27    11    12   ar
    28    12    13    1
    29    12    14   ar
    30     8     3   ar
    31    14     9   ar
    32    23    18   ar
    33    32    27    1
    34    16    17    1
    35     1     2    1
@<TRIPOS>MOLECULE
*****
 32 35 0 0 0
SMALL
GASTEIGER

@<TRIPOS>ATOM
      1 N         138.9231  139.4341  167.0798 N.pl3   1  UNL1       -0.2820
      2 H         138.4041  138.7337  167.5373 H       1  UNL1        0.1551
      3 C         139.2947  138.7586  163.1868 C.ar    1  UNL1        0.0491
      4 C         139.4118  138.5881  164.6724 C.ar    1  UNL1        0.0487
      5 C         138.8060  139.6047  165.5941 C.ar    1  UNL1        0.1345
      6 N         138.0831  140.7919  165.0302 N.ar    1  UNL1       -0.2290
      7 C         137.9660  140.9624  163.5445 C.ar    1  UNL1        0.1016
      8 C         138.5718  139.9458  162.6228 C.ar    1  UNL1        0.0354
      9 C         138.4547  140.1163  161.1371 C.ar    1  UNL1        0.0423
     10 C         137.2607  139.7636  160.3005 C.ar    1  UNL1        0.1217
     11 N         137.5791  140.0988  158.8736 N.ar    1  UNL1       -0.1676
     12 N         138.9700  140.6588  158.8283 N.ar    1  UNL1       -0.2473
     13 C         139.6928  141.1260  157.5997 C.3     1  UNL1        0.1538
     14 C         139.5111  140.6696  160.2272 C.ar    1  UNL1        0.0968
     15 C         141.3861  137.7055  162.0612 C.3     1  UNL1        0.1085
     16 N         139.9005  137.7420  162.2651 N.pl3   1  UNL1       -0.3312
     17 H         139.3230  137.0987  161.7940 H       1  UNL1        0.1469
     18 C         139.8309  140.3307  167.8684 C.ar    1  UNL1        0.1558
     19 C         139.5153  140.6452  169.3008 C.ar    1  UNL1        0.1342
     20 N         140.4232  141.5419  170.0894 N.ar    1  UNL1       -0.2263
     21 C         141.6466  142.1240  169.4456 C.ar    1  UNL1        0.2025
     22 C         141.9622  141.8095  168.0133 C.ar    1  UNL1        0.2543
     23 N         141.0543  140.9129  167.2247 N.ar    1  UNL1       -0.1931
     24 C         142.5545  143.0206  170.2342 C.1     1  UNL1        0.1246
     25 N         143.4623  143.9172  171.0228 N.1     1  UNL1       -0.1891
     26 O         143.1856  142.3916  167.3695 O.3     1  UNL1       -0.4610
     27 C         143.3422  142.3462  165.8785 C.3     1  UNL1        0.1849
     28 C         142.7578  143.3218  164.9004 C.3     1  UNL1        0.0623
     29 C         143.1652  142.8957  163.5211 C.3     1  UNL1        0.0760
     30 N         144.0013  141.6567  163.6467 N.3     1  UNL1       -0.2684
     31 C         144.6195  140.8916  162.5142 C.3     1  UNL1        0.0897
     32 C         144.1107  141.3171  165.1037 C.3     1  UNL1        0.1163
@<TRIPOS>BOND
     1    15    16    1
     2    16     3    1
     3     3     4   ar
     4     4     5   ar
     5     5     1    1
     6     1    18    1
     7    18    19   ar
     8    19    20   ar
     9    20    21   ar
    10    21    24    1
    11    24    25    3
    12    21    22   ar
    13    22    26    1
    14    27    26    1
    15    27    28    1
    16    28    29    1
    17    29    30    1
    18    30    31    1
    19    30    32    1
    20    22    23   ar
    21     5     6   ar
    22     6     7   ar
    23     7     8   ar
    24     8     9    1
    25     9    10   ar
    26    10    11   ar
    27    11    12   ar
    28    12    13    1
    29    12    14   ar
    30     8     3   ar
    31    14     9   ar
    32    23    18   ar
    33    32    27    1
    34    16    17    1
    35     1     2    1
@<TRIPOS>MOLECULE
*****
 32 35 0 0 0
SMALL
GASTEIGER

@<TRIPOS>ATOM
      1 N         137.5477  140.2967  159.7681 N.pl3   1  UNL1       -0.2820
      2 H         136.8691  139.7449  159.3161 H       1  UNL1        0.1551
      3 C         138.6620  138.7571  163.2520 C.ar    1  UNL1        0.0491
      4 C         138.4334  138.9079  161.7773 C.ar    1  UNL1        0.0487
      5 C         137.7762  140.1459  161.2429 C.ar    1  UNL1        0.1345
      6 N         137.3476  141.2330  162.1833 N.ar    1  UNL1       -0.2290
      7 C         137.5761  141.0822  163.6581 C.ar    1  UNL1        0.1016
      8 C         138.2333  139.8442  164.1924 C.ar    1  UNL1        0.0354
      9 C         138.4619  139.6934  165.6673 C.ar    1  UNL1        0.0423
     10 C         137.6915  138.7980  166.5919 C.ar    1  UNL1        0.1217
     11 N         138.2545  138.9628  167.9724 N.ar    1  UNL1       -0.1676
     12 N         139.3727  139.9600  167.9011 N.ar    1  UNL1       -0.2473
     13 C         140.2149  140.4242  169.0523 C.3     1  UNL1        0.1538
     14 C         139.5009  140.4116  166.4764 C.ar    1  UNL1        0.0968
     15 C         140.8151  137.4360  163.8594 C.3     1  UNL1        0.1085
     16 N         139.3192  137.5191  163.7864 N.pl3   1  UNL1       -0.3312
     17 H         138.7687  136.7612  164.0893 H       1  UNL1        0.1469
     18 C         138.3531  141.2882  158.9818 C.ar    1  UNL1        0.1558
     19 C         138.8250  140.9440  157.6002 C.ar    1  UNL1        0.1342
     20 N         139.6304  141.9355  156.8140 N.ar    1  UNL1       -0.2263
     21 C         139.9639  143.2713  157.4094 C.ar    1  UNL1        0.2025
     22 C         139.4921  143.6155  158.7910 C.ar    1  UNL1        0.2543
     23 N         138.6866  142.6239  159.5772 N.ar    1  UNL1       -0.1931
     24 C         140.7693  144.2629  156.6232 C.1     1  UNL1        0.1246
     25 N         141.5747  145.2544  155.8370 N.1     1  UNL1       -0.1891
     26 O         139.8256  144.9513  159.3865 O.3     1  UNL1       -0.4610
     27 C         140.5701  145.0282  160.6863 C.3     1  UNL1        0.1849
     28 C         140.0731  145.6638  161.9508 C.3     1  UNL1        0.0623
     29 C         141.1382  145.5114  162.9960 C.3     1  UNL1        0.0760
     30 N         142.2935  144.7815  162.3774 N.3     1  UNL1       -0.2684
     31 C         143.5750  144.4146  163.0654 C.3     1  UNL1        0.0897
     32 C         141.9424  144.4829  160.9500 C.3     1  UNL1        0.1163
@<TRIPOS>BOND
     1    15    16    1
     2    16     3    1
     3     3     4   ar
     4     4     5   ar
     5     5     1    1
     6     1    18    1
     7    18    19   ar
     8    19    20   ar
     9    20    21   ar
    10    21    24    1
    11    24    25    3
    12    21    22   ar
    13    22    26    1
    14    27    26    1
    15    27    28    1
    16    28    29    1
    17    29    30    1
    18    30    31    1
    19    30    32    1
    20    22    23   ar
    21     5     6   ar
    22     6     7   ar
    23     7     8   ar
    24     8     9    1
    25     9    10   ar
    26    10    11   ar
    27    11    12   ar
    28    12    13    1
    29    12    14   ar
    30     8     3   ar
    31    14     9   ar
    32    23    18   ar
    33    32    27    1
    34    16    17    1
    35     1     2    1
