@<TRIPOS>MOLECULE
*****
 36 38 0 0 0
SMALL
GASTEIGER

@<TRIPOS>ATOM
      1 N         139.6748  143.9823  165.3514 N.am    1  UNL1       -0.3005
      2 C         139.7466  142.4841  165.3421 C.2     1  UNL1        0.2474
      3 O         139.1317  141.7107  164.2134 O.2     1  UNL1       -0.2701
      4 H         140.0783  144.4898  166.0922 H       1  UNL1        0.1498
      5 C         140.4332  141.7592  166.4615 C.ar    1  UNL1        0.0725
      6 C         141.8324  142.1342  166.8511 C.ar    1  UNL1        0.0078
      7 C         142.5191  141.4093  167.9704 C.ar    1  UNL1        0.0239
      8 C         141.8066  140.3095  168.7003 C.ar    1  UNL1        0.1345
      9 N         140.4075  139.9344  168.3107 N.ar    1  UNL1       -0.2391
     10 C         139.7208  140.6593  167.1913 C.ar    1  UNL1        0.1035
     11 C         142.4933  139.5846  169.8196 C.2     1  UNL1        0.2636
     12 O         142.7234  140.2756  171.1309 O.2     1  UNL1       -0.2685
     13 N         142.9498  138.1686  169.6277 N.am    1  UNL1       -0.2996
     14 H         142.7988  137.7151  168.7670 H       1  UNL1        0.1498
     15 C         143.6365  137.4438  170.7471 C.3     1  UNL1        0.0900
     16 C         144.6257  136.3582  170.4422 C.3     1  UNL1        0.0300
     17 C         145.0270  135.3869  171.5126 C.3     1  UNL1        0.1051
     18 C         146.2514  135.6458  172.3395 C.3     1  UNL1        0.3978
     19 F         147.4758  135.9047  173.1665 F       1  UNL1       -0.1700
     20 F         145.7912  134.6273  173.3398 F       1  UNL1       -0.1700
     21 F         146.7116  136.6644  171.3392 F       1  UNL1       -0.1700
     22 C         138.9881  144.7072  164.2320 C.3     1  UNL1        0.0944
     23 C         139.7883  145.2374  163.0794 C.3     1  UNL1        0.0476
     24 C         141.6851  144.0468  161.7623 C.ar    1  UNL1       -0.0009
     25 C         143.1310  143.6743  161.6189 C.ar    1  UNL1       -0.0002
     26 C         144.1261  144.1200  162.6490 C.ar    1  UNL1       -0.0000
     27 C         143.6752  144.9381  163.8226 C.ar    1  UNL1       -0.0003
     28 C         142.2293  145.3105  163.9661 C.ar    1  UNL1       -0.0042
     29 C         141.2343  144.8649  162.9359 C.ar    1  UNL1       -0.0204
     30 C         137.7048  142.2643  157.6416 C.3     1  UNL1        0.0737
     31 C         138.6999  142.7099  158.6718 C.ar    1  UNL1        0.1396
     32 N         139.4103  144.0211  158.5105 N.ar    1  UNL1       -0.2291
     33 C         140.4054  144.4667  159.5406 C.ar    1  UNL1        0.1017
     34 C         140.6900  143.6012  160.7321 C.ar    1  UNL1        0.0380
     35 C         139.9796  142.2900  160.8935 C.ar    1  UNL1        0.1017
     36 N         138.9845  141.8443  159.8633 N.ar    1  UNL1       -0.2291
@<TRIPOS>BOND
     1    30    31    1
     2    31    32   ar
     3    32    33   ar
     4    33    34   ar
     5    34    24    1
     6    24    25   ar
     7    25    26   ar
     8    26    27   ar
     9    27    28   ar
    10    28    29   ar
    11    29    23    1
    12    23    22    1
    13    22     1    1
    14     1     2   am
    15     2     3    2
    16     2     5    1
    17     5     6   ar
    18     6     7   ar
    19     7     8   ar
    20     8    11    1
    21    11    12    2
    22    11    13   am
    23    13    15    1
    24    15    16    1
    25    16    17    1
    26    17    18    1
    27    18    19    1
    28    18    20    1
    29    18    21    1
    30     8     9   ar
    31     9    10   ar
    32    34    35   ar
    33    35    36   ar
    34    36    31   ar
    35    29    24   ar
    36    10     5   ar
    37     1     4    1
    38    13    14    1
@<TRIPOS>MOLECULE
*****
 36 38 0 0 0
SMALL
GASTEIGER

@<TRIPOS>ATOM
      1 N         139.2691  137.9413  164.0742 N.am    1  UNL1       -0.3005
      2 C         140.7394  138.1286  163.8440 C.2     1  UNL1        0.2474
      3 O         141.6632  138.3169  165.0106 O.2     1  UNL1       -0.2701
      4 H         138.6628  137.8177  163.3085 H       1  UNL1        0.1498
      5 C         141.2859  138.1277  162.4471 C.ar    1  UNL1        0.0725
      6 C         142.7561  137.9387  162.2170 C.ar    1  UNL1        0.0078
      7 C         143.3026  137.9378  160.8201 C.ar    1  UNL1        0.0239
      8 C         142.3789  138.1258  159.6533 C.ar    1  UNL1        0.1345
      9 N         140.9088  138.3148  159.8833 N.ar    1  UNL1       -0.2391
     10 C         140.3623  138.3157  161.2802 C.ar    1  UNL1        0.1035
     11 C         142.9254  138.1248  158.2564 C.2     1  UNL1        0.2636
     12 O         143.7786  139.2645  157.7840 O.2     1  UNL1       -0.2685
     13 N         142.6187  136.9841  157.3318 N.am    1  UNL1       -0.2996
     14 H         142.0587  136.2361  157.6418 H       1  UNL1        0.1498
     15 C         143.1652  136.9832  155.9349 C.3     1  UNL1        0.0900
     16 C         143.8618  135.7659  155.4029 C.3     1  UNL1        0.0300
     17 C         143.0836  134.5105  155.1415 C.3     1  UNL1        0.1051
     18 C         142.9011  133.5000  156.2349 C.3     1  UNL1        0.3978
     19 F         142.7185  132.4894  157.3283 F       1  UNL1       -0.1700
     20 F         141.4853  133.2770  155.7924 F       1  UNL1       -0.1700
     21 F         144.3168  133.7231  156.6774 F       1  UNL1       -0.1700
     22 C         138.7226  137.9422  165.4711 C.3     1  UNL1        0.0944
     23 C         138.1313  139.1959  166.0443 C.3     1  UNL1        0.0476
     24 C         139.5454  141.3747  166.1004 C.ar    1  UNL1       -0.0009
     25 C         140.4155  142.3397  166.8499 C.ar    1  UNL1       -0.0002
     26 C         140.7415  142.0909  168.2928 C.ar    1  UNL1       -0.0000
     27 C         140.1974  140.8772  168.9861 C.ar    1  UNL1       -0.0003
     28 C         139.3274  139.9122  168.2366 C.ar    1  UNL1       -0.0042
     29 C         139.0014  140.1610  166.7938 C.ar    1  UNL1       -0.0204
     30 C         138.2414  142.3698  160.3290 C.3     1  UNL1        0.0737
     31 C         138.5674  142.1210  161.7719 C.ar    1  UNL1        0.1396
     32 N         139.9781  141.8159  162.1802 N.ar    1  UNL1       -0.2291
     33 C         140.3041  141.5671  163.6231 C.ar    1  UNL1        0.1017
     34 C         139.2194  141.6235  164.6576 C.ar    1  UNL1        0.0380
     35 C         137.8087  141.9286  164.2492 C.ar    1  UNL1        0.1017
     36 N         137.4827  142.1773  162.8064 N.ar    1  UNL1       -0.2291
@<TRIPOS>BOND
     1    30    31    1
     2    31    32   ar
     3    32    33   ar
     4    33    34   ar
     5    34    24    1
     6    24    25   ar
     7    25    26   ar
     8    26    27   ar
     9    27    28   ar
    10    28    29   ar
    11    29    23    1
    12    23    22    1
    13    22     1    1
    14     1     2   am
    15     2     3    2
    16     2     5    1
    17     5     6   ar
    18     6     7   ar
    19     7     8   ar
    20     8    11    1
    21    11    12    2
    22    11    13   am
    23    13    15    1
    24    15    16    1
    25    16    17    1
    26    17    18    1
    27    18    19    1
    28    18    20    1
    29    18    21    1
    30     8     9   ar
    31     9    10   ar
    32    34    35   ar
    33    35    36   ar
    34    36    31   ar
    35    29    24   ar
    36    10     5   ar
    37     1     4    1
    38    13    14    1
@<TRIPOS>MOLECULE
*****
 36 38 0 0 0
SMALL
GASTEIGER

@<TRIPOS>ATOM
      1 N         142.7898  142.6725  163.8948 N.am    1  UNL1       -0.3005
      2 C         142.6581  143.9922  163.1941 C.2     1  UNL1        0.2474
      3 O         143.2286  145.2320  163.8164 O.2     1  UNL1       -0.2701
      4 H         142.4154  141.8587  163.4863 H       1  UNL1        0.1498
      5 C         141.9559  144.0720  161.8710 C.ar    1  UNL1        0.0725
      6 C         142.5982  143.4937  160.6450 C.ar    1  UNL1        0.0078
      7 C         141.8960  143.5735  159.3219 C.ar    1  UNL1        0.0239
      8 C         140.5515  144.2316  159.2249 C.ar    1  UNL1        0.1345
      9 N         139.9093  144.8098  160.4508 N.ar    1  UNL1       -0.2391
     10 C         140.6115  144.7300  161.7740 C.ar    1  UNL1        0.1035
     11 C         139.8494  144.3114  157.9018 C.2     1  UNL1        0.2636
     12 O         138.7917  143.3068  157.5522 O.2     1  UNL1       -0.2685
     13 N         140.2048  145.3959  156.9283 N.am    1  UNL1       -0.2996
     14 H         140.8989  146.0552  157.1577 H       1  UNL1        0.1498
     15 C         139.5026  145.4757  155.6052 C.3     1  UNL1        0.0900
     16 C         138.6355  146.6575  155.2864 C.3     1  UNL1        0.0300
     17 C         139.2403  148.0265  155.1874 C.3     1  UNL1        0.1051
     18 C         138.6500  149.1653  155.9651 C.3     1  UNL1        0.3978
     19 F         138.0597  150.3041  156.7427 F       1  UNL1       -0.1700
     20 F         138.7191  150.0345  154.7446 F       1  UNL1       -0.1700
     21 F         138.5809  148.2960  157.1855 F       1  UNL1       -0.1700
     22 C         143.4920  142.5926  165.2179 C.3     1  UNL1        0.0944
     23 C         143.0107  141.6333  166.2658 C.3     1  UNL1        0.0476
     24 C         141.0248  142.4708  167.7165 C.ar    1  UNL1       -0.0009
     25 C         140.4972  142.9885  169.0217 C.ar    1  UNL1       -0.0002
     26 C         141.4278  143.1862  170.1814 C.ar    1  UNL1       -0.0000
     27 C         142.8860  142.8664  170.0359 C.ar    1  UNL1       -0.0003
     28 C         143.4136  142.3487  168.7307 C.ar    1  UNL1       -0.0042
     29 C         142.4830  142.1509  167.5710 C.ar    1  UNL1       -0.0204
     30 C         137.3024  141.6797  163.0777 C.3     1  UNL1        0.0737
     31 C         138.2330  141.8775  164.2374 C.ar    1  UNL1        0.1396
     32 N         138.5734  140.7221  165.1314 N.ar    1  UNL1       -0.2291
     33 C         139.5040  140.9199  166.2911 C.ar    1  UNL1        0.1017
     34 C         140.0942  142.2730  166.5568 C.ar    1  UNL1        0.0380
     35 C         139.7538  143.4284  165.6629 C.ar    1  UNL1        0.1017
     36 N         138.8232  143.2306  164.5032 N.ar    1  UNL1       -0.2291
@<TRIPOS>BOND
     1    30    31    1
     2    31    32   ar
     3    32    33   ar
     4    33    34   ar
     5    34    24    1
     6    24    25   ar
     7    25    26   ar
     8    26    27   ar
     9    27    28   ar
    10    28    29   ar
    11    29    23    1
    12    23    22    1
    13    22     1    1
    14     1     2   am
    15     2     3    2
    16     2     5    1
    17     5     6   ar
    18     6     7   ar
    19     7     8   ar
    20     8    11    1
    21    11    12    2
    22    11    13   am
    23    13    15    1
    24    15    16    1
    25    16    17    1
    26    17    18    1
    27    18    19    1
    28    18    20    1
    29    18    21    1
    30     8     9   ar
    31     9    10   ar
    32    34    35   ar
    33    35    36   ar
    34    36    31   ar
    35    29    24   ar
    36    10     5   ar
    37     1     4    1
    38    13    14    1
@<TRIPOS>MOLECULE
*****
 36 38 0 0 0
SMALL
GASTEIGER

@<TRIPOS>ATOM
      1 N         139.9172  143.0053  164.0066 N.am    1  UNL1       -0.3005
      2 C         138.5581  142.6468  163.4831 C.2     1  UNL1        0.2474
      3 O         137.3524  142.7940  164.3632 O.2     1  UNL1       -0.2701
      4 H         140.7085  142.9087  163.4289 H       1  UNL1        0.1498
      5 C         138.4046  142.1409  162.0793 C.ar    1  UNL1        0.0725
      6 C         138.8139  143.0034  160.9223 C.ar    1  UNL1        0.0078
      7 C         138.6605  142.4975  159.5186 C.ar    1  UNL1        0.0239
      8 C         138.0976  141.1292  159.2718 C.ar    1  UNL1        0.1345
      9 N         137.6883  140.2667  160.4287 N.ar    1  UNL1       -0.2391
     10 C         137.8417  140.7726  161.8325 C.ar    1  UNL1        0.1035
     11 C         137.9441  140.6233  157.8681 C.2     1  UNL1        0.2636
     12 O         138.7455  139.4432  157.4043 O.2     1  UNL1       -0.2685
     13 N         136.9892  141.2976  156.9280 N.am    1  UNL1       -0.2996
     14 H         136.4632  142.0721  157.2324 H       1  UNL1        0.1498
     15 C         136.8357  140.7917  155.5243 C.3     1  UNL1        0.0900
     16 C         135.4677  140.6311  154.9303 C.3     1  UNL1        0.0300
     17 C         134.5550  139.5509  155.4304 C.3     1  UNL1        0.1051
     18 C         133.3731  139.9034  156.2841 C.3     1  UNL1        0.3978
     19 F         132.1911  140.2560  157.1378 F       1  UNL1       -0.1700
     20 F         133.5074  141.3407  155.8765 F       1  UNL1       -0.1700
     21 F         133.2388  138.4661  156.6916 F       1  UNL1       -0.1700
     22 C         140.0707  143.5112  165.4104 C.3     1  UNL1        0.0944
     23 C         141.0442  142.8530  166.3426 C.3     1  UNL1        0.0476
     24 C         140.2200  140.8387  167.7615 C.ar    1  UNL1       -0.0009
     25 C         139.7447  140.2790  169.0694 C.ar    1  UNL1       -0.0002
     26 C         139.6183  141.1740  170.2665 C.ar    1  UNL1       -0.0000
     27 C         139.9672  142.6286  170.1557 C.ar    1  UNL1       -0.0003
     28 C         140.4425  143.1882  168.8477 C.ar    1  UNL1       -0.0042
     29 C         140.5689  142.2933  167.6506 C.ar    1  UNL1       -0.0204
     30 C         140.7255  137.2588  162.9730 C.3     1  UNL1        0.0737
     31 C         140.5991  138.1538  164.1701 C.ar    1  UNL1        0.1396
     32 N         141.7875  138.3992  165.0519 N.ar    1  UNL1       -0.2291
     33 C         141.6611  139.2942  166.2490 C.ar    1  UNL1        0.1017
     34 C         140.3464  139.9437  166.5644 C.ar    1  UNL1        0.0380
     35 C         139.1580  139.6982  165.6826 C.ar    1  UNL1        0.1017
     36 N         139.2844  138.8033  164.4855 N.ar    1  UNL1       -0.2291
@<TRIPOS>BOND
     1    30    31    1
     2    31    32   ar
     3    32    33   ar
     4    33    34   ar
     5    34    24    1
     6    24    25   ar
     7    25    26   ar
     8    26    27   ar
     9    27    28   ar
    10    28    29   ar
    11    29    23    1
    12    23    22    1
    13    22     1    1
    14     1     2   am
    15     2     3    2
    16     2     5    1
    17     5     6   ar
    18     6     7   ar
    19     7     8   ar
    20     8    11    1
    21    11    12    2
    22    11    13   am
    23    13    15    1
    24    15    16    1
    25    16    17    1
    26    17    18    1
    27    18    19    1
    28    18    20    1
    29    18    21    1
    30     8     9   ar
    31     9    10   ar
    32    34    35   ar
    33    35    36   ar
    34    36    31   ar
    35    29    24   ar
    36    10     5   ar
    37     1     4    1
    38    13    14    1
@<TRIPOS>MOLECULE
*****
 36 38 0 0 0
SMALL
GASTEIGER

@<TRIPOS>ATOM
      1 N         142.0073  141.9653  163.7895 N.am    1  UNL1       -0.3005
      2 C         142.8686  140.7738  163.4919 C.2     1  UNL1        0.2474
      3 O         143.7325  140.1855  164.5677 O.2     1  UNL1       -0.2701
      4 H         141.4402  142.3515  163.0834 H       1  UNL1        0.1498
      5 C         142.8659  140.1708  162.1185 C.ar    1  UNL1        0.0725
      6 C         141.6265  140.2305  161.2756 C.ar    1  UNL1        0.0078
      7 C         141.6238  139.6275  159.9022 C.ar    1  UNL1        0.0239
      8 C         142.8605  138.9647  159.3716 C.ar    1  UNL1        0.1345
      9 N         144.0998  138.9049  160.2145 N.ar    1  UNL1       -0.2391
     10 C         144.1025  139.5080  161.5880 C.ar    1  UNL1        0.1035
     11 C         142.8578  138.3616  157.9982 C.2     1  UNL1        0.2636
     12 O         143.8159  138.8612  156.9579 O.2     1  UNL1       -0.2685
     13 N         141.8969  137.2589  157.6651 N.am    1  UNL1       -0.2996
     14 H         141.2680  136.9310  158.3480 H       1  UNL1        0.1498
     15 C         141.8942  136.6559  156.2917 C.3     1  UNL1        0.0900
     16 C         142.2988  135.2241  156.1005 C.3     1  UNL1        0.0300
     17 C         143.3187  134.6051  157.0095 C.3     1  UNL1        0.1051
     18 C         144.1102  133.4168  156.5498 C.3     1  UNL1        0.3978
     19 F         144.9018  132.2285  156.0900 F       1  UNL1       -0.1700
     20 F         144.7436  133.3141  157.9056 F       1  UNL1       -0.1700
     21 F         143.4768  133.5195  155.1940 F       1  UNL1       -0.1700
     22 C         142.0099  142.5684  165.1630 C.3     1  UNL1        0.0944
     23 C         140.7124  142.8542  165.8591 C.3     1  UNL1        0.0476
     24 C         139.7937  140.8059  167.1669 C.ar    1  UNL1       -0.0009
     25 C         139.4765  140.1317  168.4688 C.ar    1  UNL1       -0.0002
     26 C         139.7610  140.8315  169.7646 C.ar    1  UNL1       -0.0000
     27 C         140.3626  142.2055  169.7587 C.ar    1  UNL1       -0.0003
     28 C         140.6797  142.8798  168.4569 C.ar    1  UNL1       -0.0042
     29 C         140.3952  142.1799  167.1610 C.ar    1  UNL1       -0.0204
     30 C         138.6558  138.0066  161.9833 C.3     1  UNL1        0.0737
     31 C         138.9403  138.7064  163.2792 C.ar    1  UNL1        0.1396
     32 N         138.0737  139.8482  163.7210 N.ar    1  UNL1       -0.2291
     33 C         138.3581  140.5480  165.0169 C.ar    1  UNL1        0.1017
     34 C         139.5092  140.1061  165.8710 C.ar    1  UNL1        0.0380
     35 C         140.3758  138.9643  165.4293 C.ar    1  UNL1        0.1017
     36 N         140.0914  138.2645  164.1334 N.ar    1  UNL1       -0.2291
@<TRIPOS>BOND
     1    30    31    1
     2    31    32   ar
     3    32    33   ar
     4    33    34   ar
     5    34    24    1
     6    24    25   ar
     7    25    26   ar
     8    26    27   ar
     9    27    28   ar
    10    28    29   ar
    11    29    23    1
    12    23    22    1
    13    22     1    1
    14     1     2   am
    15     2     3    2
    16     2     5    1
    17     5     6   ar
    18     6     7   ar
    19     7     8   ar
    20     8    11    1
    21    11    12    2
    22    11    13   am
    23    13    15    1
    24    15    16    1
    25    16    17    1
    26    17    18    1
    27    18    19    1
    28    18    20    1
    29    18    21    1
    30     8     9   ar
    31     9    10   ar
    32    34    35   ar
    33    35    36   ar
    34    36    31   ar
    35    29    24   ar
    36    10     5   ar
    37     1     4    1
    38    13    14    1
@<TRIPOS>MOLECULE
*****
 36 38 0 0 0
SMALL
GASTEIGER

@<TRIPOS>ATOM
      1 N         143.6547  139.9834  163.6438 N.am    1  UNL1       -0.3005
      2 C         144.0410  141.4263  163.5075 C.2     1  UNL1        0.2474
      3 O         145.0970  142.0076  164.4003 O.2     1  UNL1       -0.2701
      4 H         142.9616  139.6019  163.0578 H       1  UNL1        0.1498
      5 C         143.3712  142.2881  162.4786 C.ar    1  UNL1        0.0725
      6 C         142.5829  141.6566  161.3695 C.ar    1  UNL1        0.0078
      7 C         141.9132  142.5184  160.3405 C.ar    1  UNL1        0.0239
      8 C         142.0317  144.0115  160.4206 C.ar    1  UNL1        0.1345
      9 N         142.8199  144.6430  161.5296 N.ar    1  UNL1       -0.2391
     10 C         143.4897  143.7812  162.5586 C.ar    1  UNL1        0.1035
     11 C         141.3619  144.8733  159.3916 C.2     1  UNL1        0.2636
     12 O         139.9213  145.2570  159.5573 O.2     1  UNL1       -0.2685
     13 N         142.1327  145.3514  158.1969 N.am    1  UNL1       -0.2996
     14 H         143.0783  145.0995  158.0881 H       1  UNL1        0.1498
     15 C         141.4630  146.2131  157.1679 C.3     1  UNL1        0.0900
     16 C         140.8530  145.5882  155.9483 C.3     1  UNL1        0.0300
     17 C         139.5673  144.8239  156.0605 C.3     1  UNL1        0.1051
     18 C         138.3492  145.2926  155.3213 C.3     1  UNL1        0.3978
     19 F         137.1310  145.7614  154.5820 F       1  UNL1       -0.1700
     20 F         138.1636  143.9164  154.7543 F       1  UNL1       -0.1700
     21 F         138.5348  146.6689  155.8882 F       1  UNL1       -0.1700
     22 C         144.3245  139.1216  164.6728 C.3     1  UNL1        0.0944
     23 C         143.4986  138.3710  165.6750 C.3     1  UNL1        0.0476
     24 C         141.2953  139.4458  166.5353 C.ar    1  UNL1       -0.0009
     25 C         139.7991  139.5466  166.5004 C.ar    1  UNL1       -0.0002
     26 C         139.0101  138.6735  165.5703 C.ar    1  UNL1       -0.0000
     27 C         139.7172  137.6996  164.6751 C.ar    1  UNL1       -0.0003
     28 C         141.2133  137.5988  164.7100 C.ar    1  UNL1       -0.0042
     29 C         142.0024  138.4719  165.6401 C.ar    1  UNL1       -0.0204
     30 C         144.4515  142.9383  170.2557 C.3     1  UNL1        0.0737
     31 C         143.6624  142.0651  169.3256 C.ar    1  UNL1        0.1396
     32 N         143.3055  142.5592  167.9550 N.ar    1  UNL1       -0.2291
     33 C         142.5164  141.6861  167.0249 C.ar    1  UNL1        0.1017
     34 C         142.0843  140.3189  167.4654 C.ar    1  UNL1        0.0380
     35 C         142.4413  139.8249  168.8359 C.ar    1  UNL1        0.1017
     36 N         143.2303  140.6980  169.7660 N.ar    1  UNL1       -0.2291
@<TRIPOS>BOND
     1    30    31    1
     2    31    32   ar
     3    32    33   ar
     4    33    34   ar
     5    34    24    1
     6    24    25   ar
     7    25    26   ar
     8    26    27   ar
     9    27    28   ar
    10    28    29   ar
    11    29    23    1
    12    23    22    1
    13    22     1    1
    14     1     2   am
    15     2     3    2
    16     2     5    1
    17     5     6   ar
    18     6     7   ar
    19     7     8   ar
    20     8    11    1
    21    11    12    2
    22    11    13   am
    23    13    15    1
    24    15    16    1
    25    16    17    1
    26    17    18    1
    27    18    19    1
    28    18    20    1
    29    18    21    1
    30     8     9   ar
    31     9    10   ar
    32    34    35   ar
    33    35    36   ar
    34    36    31   ar
    35    29    24   ar
    36    10     5   ar
    37     1     4    1
    38    13    14    1
@<TRIPOS>MOLECULE
*****
 36 38 0 0 0
SMALL
GASTEIGER

@<TRIPOS>ATOM
      1 N         140.7774  138.8934  164.5155 N.am    1  UNL1       -0.3005
      2 C         140.0838  138.2898  163.3304 C.2     1  UNL1        0.2474
      3 O         138.6920  137.7484  163.4714 O.2     1  UNL1       -0.2701
      4 H         141.6909  139.2487  164.4229 H       1  UNL1        0.1498
      5 C         140.7819  138.2277  162.0042 C.ar    1  UNL1        0.0725
      6 C         140.0426  138.5883  160.7498 C.ar    1  UNL1        0.0078
      7 C         140.7407  138.5262  159.4237 C.ar    1  UNL1        0.0239
      8 C         142.1781  138.1035  159.3518 C.ar    1  UNL1        0.1345
      9 N         142.9174  137.7429  160.6062 N.ar    1  UNL1       -0.2391
     10 C         142.2193  137.8050  161.9324 C.ar    1  UNL1        0.1035
     11 C         142.8763  138.0414  158.0257 C.2     1  UNL1        0.2636
     12 O         143.7054  139.2012  157.5595 O.2     1  UNL1       -0.2685
     13 N         142.7453  136.8194  157.1656 N.am    1  UNL1       -0.2996
     14 H         142.2011  136.0581  157.4716 H       1  UNL1        0.1498
     15 C         143.4434  136.7573  155.8395 C.3     1  UNL1        0.0900
     16 C         143.6935  135.4310  155.1849 C.3     1  UNL1        0.0300
     17 C         142.5990  134.4073  155.1220 C.3     1  UNL1        0.1051
     18 C         142.6129  133.2359  156.0588 C.3     1  UNL1        0.3978
     19 F         142.6270  132.0644  156.9955 F       1  UNL1       -0.1700
     20 F         144.0598  133.4934  156.3592 F       1  UNL1       -0.1700
     21 F         141.1661  132.9784  155.7584 F       1  UNL1       -0.1700
     22 C         140.0793  138.9555  165.8418 C.3     1  UNL1        0.0944
     23 C         139.3495  140.2016  166.2475 C.3     1  UNL1        0.0476
     24 C         140.3206  142.2528  167.5122 C.ar    1  UNL1       -0.0009
     25 C         140.6681  142.9400  168.7994 C.ar    1  UNL1       -0.0002
     26 C         140.3920  142.2632  170.1092 C.ar    1  UNL1       -0.0000
     27 C         139.7684  140.8991  170.1318 C.ar    1  UNL1       -0.0003
     28 C         139.4209  140.2120  168.8446 C.ar    1  UNL1       -0.0042
     29 C         139.6970  140.8888  167.5348 C.ar    1  UNL1       -0.0204
     30 C         141.4250  144.9601  162.2728 C.3     1  UNL1        0.0737
     31 C         141.1489  144.2833  163.5827 C.ar    1  UNL1        0.1396
     32 N         142.1969  143.4154  164.2140 N.ar    1  UNL1       -0.2291
     33 C         141.9208  142.7386  165.5238 C.ar    1  UNL1        0.1017
     34 C         140.5967  142.9296  166.2023 C.ar    1  UNL1        0.0380
     35 C         139.5488  143.7975  165.5710 C.ar    1  UNL1        0.1017
     36 N         139.8249  144.4743  164.2612 N.ar    1  UNL1       -0.2291
@<TRIPOS>BOND
     1    30    31    1
     2    31    32   ar
     3    32    33   ar
     4    33    34   ar
     5    34    24    1
     6    24    25   ar
     7    25    26   ar
     8    26    27   ar
     9    27    28   ar
    10    28    29   ar
    11    29    23    1
    12    23    22    1
    13    22     1    1
    14     1     2   am
    15     2     3    2
    16     2     5    1
    17     5     6   ar
    18     6     7   ar
    19     7     8   ar
    20     8    11    1
    21    11    12    2
    22    11    13   am
    23    13    15    1
    24    15    16    1
    25    16    17    1
    26    17    18    1
    27    18    19    1
    28    18    20    1
    29    18    21    1
    30     8     9   ar
    31     9    10   ar
    32    34    35   ar
    33    35    36   ar
    34    36    31   ar
    35    29    24   ar
    36    10     5   ar
    37     1     4    1
    38    13    14    1
@<TRIPOS>MOLECULE
*****
 36 38 0 0 0
SMALL
GASTEIGER

@<TRIPOS>ATOM
      1 N         139.3059  143.4154  161.7168 N.am    1  UNL1       -0.3005
      2 C         138.4601  142.1911  161.5284 C.2     1  UNL1        0.2474
      3 O         137.2404  141.9842  162.3767 O.2     1  UNL1       -0.2701
      4 H         140.1064  143.5512  161.1600 H       1  UNL1        0.1498
      5 C         138.8340  141.1736  160.4917 C.ar    1  UNL1        0.0725
      6 C         139.2721  139.8016  160.9111 C.ar    1  UNL1        0.0078
      7 C         139.6460  138.7841  159.8744 C.ar    1  UNL1        0.0239
      8 C         139.5818  139.1384  158.4183 C.ar    1  UNL1        0.1345
      9 N         139.1437  140.5103  157.9988 N.ar    1  UNL1       -0.2391
     10 C         138.7698  141.5279  159.0356 C.ar    1  UNL1        0.1035
     11 C         139.9557  138.1209  157.3816 C.2     1  UNL1        0.2636
     12 O         138.9543  137.7022  156.3462 O.2     1  UNL1       -0.2685
     13 N         141.3310  137.5220  157.3802 N.am    1  UNL1       -0.2996
     14 H         141.9882  137.7967  158.0598 H       1  UNL1        0.1498
     15 C         141.7049  136.5044  156.3435 C.3     1  UNL1        0.0900
     16 C         143.1271  136.3940  155.8796 C.3     1  UNL1        0.0300
     17 C         143.7428  135.0434  155.6634 C.3     1  UNL1        0.1051
     18 C         143.1864  133.8436  156.3710 C.3     1  UNL1        0.3978
     19 F         142.6299  132.6437  157.0787 F       1  UNL1       -0.1700
     20 F         142.4873  133.4250  155.1117 F       1  UNL1       -0.1700
     21 F         143.8854  134.2622  157.6304 F       1  UNL1       -0.1700
     22 C         138.9320  144.4331  162.7535 C.3     1  UNL1        0.0944
     23 C         139.5627  144.3847  164.1136 C.3     1  UNL1        0.0476
     24 C         141.6263  142.9955  164.8633 C.ar    1  UNL1       -0.0009
     25 C         143.1129  142.8457  164.9957 C.ar    1  UNL1       -0.0002
     26 C         144.0226  143.9354  164.5108 C.ar    1  UNL1       -0.0000
     27 C         143.4457  145.1748  163.8936 C.ar    1  UNL1       -0.0003
     28 C         141.9591  145.3246  163.7612 C.ar    1  UNL1       -0.0042
     29 C         141.0494  144.2349  164.2460 C.ar    1  UNL1       -0.0204
     30 C         137.9874  138.6369  166.8026 C.3     1  UNL1        0.0737
     31 C         138.8971  139.7265  166.3178 C.ar    1  UNL1        0.1396
     32 N         139.4936  140.6958  167.2949 N.ar    1  UNL1       -0.2291
     33 C         140.4033  141.7854  166.8100 C.ar    1  UNL1        0.1017
     34 C         140.7166  141.9058  165.3481 C.ar    1  UNL1        0.0380
     35 C         140.1201  140.9366  164.3710 C.ar    1  UNL1        0.1017
     36 N         139.2104  139.8469  164.8559 N.ar    1  UNL1       -0.2291
@<TRIPOS>BOND
     1    30    31    1
     2    31    32   ar
     3    32    33   ar
     4    33    34   ar
     5    34    24    1
     6    24    25   ar
     7    25    26   ar
     8    26    27   ar
     9    27    28   ar
    10    28    29   ar
    11    29    23    1
    12    23    22    1
    13    22     1    1
    14     1     2   am
    15     2     3    2
    16     2     5    1
    17     5     6   ar
    18     6     7   ar
    19     7     8   ar
    20     8    11    1
    21    11    12    2
    22    11    13   am
    23    13    15    1
    24    15    16    1
    25    16    17    1
    26    17    18    1
    27    18    19    1
    28    18    20    1
    29    18    21    1
    30     8     9   ar
    31     9    10   ar
    32    34    35   ar
    33    35    36   ar
    34    36    31   ar
    35    29    24   ar
    36    10     5   ar
    37     1     4    1
    38    13    14    1
@<TRIPOS>MOLECULE
*****
 36 38 0 0 0
SMALL
GASTEIGER

@<TRIPOS>ATOM
      1 N         139.3452  138.3869  163.9624 N.am    1  UNL1       -0.3005
      2 C         140.7139  137.8913  163.6005 C.2     1  UNL1        0.2474
      3 O         141.5987  137.2951  164.6548 O.2     1  UNL1       -0.2701
      4 H         138.7645  138.7783  163.2704 H       1  UNL1        0.1498
      5 C         141.1977  137.9919  162.1843 C.ar    1  UNL1        0.0725
      6 C         142.6449  137.7563  161.8676 C.ar    1  UNL1        0.0078
      7 C         143.1288  137.8569  160.4513 C.ar    1  UNL1        0.0239
      8 C         142.1655  138.1930  159.3517 C.ar    1  UNL1        0.1345
      9 N         140.7184  138.4285  159.6684 N.ar    1  UNL1       -0.2391
     10 C         140.2344  138.3280  161.0847 C.ar    1  UNL1        0.1035
     11 C         142.6493  138.2935  157.9355 C.2     1  UNL1        0.2636
     12 O         143.8443  139.1395  157.6095 O.2     1  UNL1       -0.2685
     13 N         141.9382  137.5481  156.8452 N.am    1  UNL1       -0.2996
     14 H         141.1538  136.9929  157.0592 H       1  UNL1        0.1498
     15 C         142.4220  137.6487  155.4290 C.3     1  UNL1        0.0900
     16 C         143.0950  136.4750  154.7812 C.3     1  UNL1        0.0300
     17 C         143.8632  135.4952  155.6178 C.3     1  UNL1        0.1051
     18 C         143.1771  134.2815  156.1710 C.3     1  UNL1        0.3978
     19 F         142.4909  133.0677  156.7241 F       1  UNL1       -0.1700
     20 F         142.5522  134.0244  154.8318 F       1  UNL1       -0.1700
     21 F         143.8020  134.5386  157.5101 F       1  UNL1       -0.1700
     22 C         138.8613  138.2864  165.3787 C.3     1  UNL1        0.0944
     23 C         138.3295  139.5023  166.0776 C.3     1  UNL1        0.0476
     24 C         140.0571  141.4275  166.3216 C.ar    1  UNL1       -0.0009
     25 C         140.5465  142.7907  165.9319 C.ar    1  UNL1       -0.0002
     26 C         139.7979  143.5922  164.9085 C.ar    1  UNL1       -0.0000
     27 C         138.5598  143.0304  164.2749 C.ar    1  UNL1       -0.0003
     28 C         138.0704  141.6671  164.6646 C.ar    1  UNL1       -0.0042
     29 C         138.8190  140.8657  165.6879 C.ar    1  UNL1       -0.0204
     30 C         143.0516  138.2216  170.4149 C.3     1  UNL1        0.0737
     31 C         142.3029  139.0230  169.3916 C.ar    1  UNL1        0.1396
     32 N         142.8525  139.1677  168.0034 N.ar    1  UNL1       -0.2291
     33 C         142.1039  139.9692  166.9801 C.ar    1  UNL1        0.1017
     34 C         140.8057  140.6260  167.3449 C.ar    1  UNL1        0.0380
     35 C         140.2561  140.4813  168.7330 C.ar    1  UNL1        0.1017
     36 N         141.0047  139.6798  169.7564 N.ar    1  UNL1       -0.2291
@<TRIPOS>BOND
     1    30    31    1
     2    31    32   ar
     3    32    33   ar
     4    33    34   ar
     5    34    24    1
     6    24    25   ar
     7    25    26   ar
     8    26    27   ar
     9    27    28   ar
    10    28    29   ar
    11    29    23    1
    12    23    22    1
    13    22     1    1
    14     1     2   am
    15     2     3    2
    16     2     5    1
    17     5     6   ar
    18     6     7   ar
    19     7     8   ar
    20     8    11    1
    21    11    12    2
    22    11    13   am
    23    13    15    1
    24    15    16    1
    25    16    17    1
    26    17    18    1
    27    18    19    1
    28    18    20    1
    29    18    21    1
    30     8     9   ar
    31     9    10   ar
    32    34    35   ar
    33    35    36   ar
    34    36    31   ar
    35    29    24   ar
    36    10     5   ar
    37     1     4    1
    38    13    14    1
