@<TRIPOS>MOLECULE
*****
 19 21 0 0 0
SMALL
GASTEIGER

@<TRIPOS>ATOM
      1 C         140.0831  140.4504  167.5068 C.3     1  UNL1        0.0364
      2 C         140.0298  140.2030  168.9853 C.3     1  UNL1        0.0236
      3 C         140.2852  139.9096  170.4340 C.3     1  UNL1        0.0690
      4 N         141.7509  139.6374  170.6004 N.3     1  UNL1       -0.2972
      5 C         142.4013  139.7626  169.2545 C.3     1  UNL1        0.0727
      6 C         141.3376  140.1122  168.2564 C.3     1  UNL1        0.0372
      7 H         141.8887  138.6948  170.9651 H       1  UNL1        0.1233
      8 C         142.2503  140.1667  167.0672 C.ar    1  UNL1       -0.0205
      9 C         142.6040  138.9063  166.3349 C.ar    1  UNL1       -0.0033
     10 C         143.5167  138.9608  165.1457 C.ar    1  UNL1        0.0119
     11 C         144.0756  140.2756  164.6890 C.ar    1  UNL1        0.0682
     12 CL        144.9883  140.3301  163.4998 Cl      1  UNL1       -0.0814
     13 C         143.7219  141.5360  165.4213 C.ar    1  UNL1        0.0679
     14 CL        144.2808  142.8510  164.9645 Cl      1  UNL1       -0.0814
     15 C         142.8092  141.4815  166.6104 C.ar    1  UNL1        0.0080
     16 C         139.3896  140.7884  166.2205 C.3     1  UNL1        0.1425
     17 O         138.2791  139.9158  165.7153 O.3     1  UNL1       -0.3538
     18 C         139.3114  137.6413  165.0005 C.3     1  UNL1        0.0346
     19 C         138.3691  138.4259  165.8644 C.3     1  UNL1        0.1422
@<TRIPOS>BOND
     1    18    19    1
     2    19    17    1
     3    17    16    1
     4     1    16    1
     5     1     2    1
     6     2     3    1
     7     3     4    1
     8     4     5    1
     9     5     6    1
    10     6     8    1
    11     8     9   ar
    12     9    10   ar
    13    10    11   ar
    14    11    12    1
    15    11    13   ar
    16    13    14    1
    17    13    15   ar
    18     6     1    1
    19    15     8   ar
    20     6     2    1
    21     4     7    1
@<TRIPOS>MOLECULE
*****
 19 21 0 0 0
SMALL
GASTEIGER

@<TRIPOS>ATOM
      1 C         142.4026  139.8306  167.1130 C.3     1  UNL1        0.0364
      2 C         142.5019  139.4272  168.5543 C.3     1  UNL1        0.0236
      3 C         142.3036  139.1215  170.0094 C.3     1  UNL1        0.0690
      4 N         140.9006  139.5046  170.3764 N.3     1  UNL1       -0.2972
      5 C         140.2318  140.0471  169.1482 C.3     1  UNL1        0.0727
      6 C         141.2215  139.9992  168.0221 C.3     1  UNL1        0.0372
      7 H         140.9160  140.2176  171.1057 H       1  UNL1        0.1233
      8 C         140.3058  140.5769  166.9839 C.ar    1  UNL1       -0.0205
      9 C         139.3080  139.6972  166.2908 C.ar    1  UNL1       -0.0033
     10 C         138.3922  140.2749  165.2526 C.ar    1  UNL1        0.0119
     11 C         138.4744  141.7323  164.9076 C.ar    1  UNL1        0.0682
     12 CL        137.5587  142.3100  163.8695 Cl      1  UNL1       -0.0814
     13 C         139.4722  142.6120  165.6007 C.ar    1  UNL1        0.0679
     14 CL        139.5543  144.0696  165.2557 Cl      1  UNL1       -0.0814
     15 C         140.3879  142.0343  166.6389 C.ar    1  UNL1        0.0080
     16 C         143.0272  139.9662  165.7560 C.3     1  UNL1        0.1425
     17 O         143.1347  138.7703  164.8570 O.3     1  UNL1       -0.3538
     18 C         141.1760  137.1085  164.4672 C.3     1  UNL1        0.0346
     19 C         141.9479  138.3265  164.0541 C.3     1  UNL1        0.1422
@<TRIPOS>BOND
     1    18    19    1
     2    19    17    1
     3    17    16    1
     4     1    16    1
     5     1     2    1
     6     2     3    1
     7     3     4    1
     8     4     5    1
     9     5     6    1
    10     6     8    1
    11     8     9   ar
    12     9    10   ar
    13    10    11   ar
    14    11    12    1
    15    11    13   ar
    16    13    14    1
    17    13    15   ar
    18     6     1    1
    19    15     8   ar
    20     6     2    1
    21     4     7    1
@<TRIPOS>MOLECULE
*****
 19 21 0 0 0
SMALL
GASTEIGER

@<TRIPOS>ATOM
      1 C         142.7807  142.1941  167.0086 C.3     1  UNL1        0.0364
      2 C         143.3382  142.3061  168.3966 C.3     1  UNL1        0.0236
      3 C         143.7795  142.1289  169.8192 C.3     1  UNL1        0.0690
      4 N         143.3403  140.7689  170.2748 N.3     1  UNL1       -0.2972
      5 C         142.6275  140.1056  169.1337 C.3     1  UNL1        0.0727
      6 C         142.6262  141.0556  167.9729 C.3     1  UNL1        0.0372
      7 H         142.7101  140.8577  171.0719 H       1  UNL1        0.1233
      8 C         141.8812  140.1543  167.0335 C.ar    1  UNL1       -0.0205
      9 C         142.6338  139.1983  166.1563 C.ar    1  UNL1       -0.0033
     10 C         141.8888  138.2970  165.2168 C.ar    1  UNL1        0.0119
     11 C         140.3911  138.3517  165.1547 C.ar    1  UNL1        0.0682
     12 CL        139.6461  137.4504  164.2152 Cl      1  UNL1       -0.0814
     13 C         139.6385  139.3077  166.0319 C.ar    1  UNL1        0.0679
     14 CL        138.1407  139.3624  165.9697 Cl      1  UNL1       -0.0814
     15 C         140.3835  140.2090  166.9713 C.ar    1  UNL1        0.0080
     16 C         142.5480  142.7867  165.6504 C.3     1  UNL1        0.1425
     17 O         143.2133  142.1878  164.4468 O.3     1  UNL1       -0.3538
     18 C         145.3484  140.7612  164.0519 C.3     1  UNL1        0.0346
     19 C         144.7081  142.0735  164.3953 C.3     1  UNL1        0.1422
@<TRIPOS>BOND
     1    18    19    1
     2    19    17    1
     3    17    16    1
     4     1    16    1
     5     1     2    1
     6     2     3    1
     7     3     4    1
     8     4     5    1
     9     5     6    1
    10     6     8    1
    11     8     9   ar
    12     9    10   ar
    13    10    11   ar
    14    11    12    1
    15    11    13   ar
    16    13    14    1
    17    13    15   ar
    18     6     1    1
    19    15     8   ar
    20     6     2    1
    21     4     7    1
@<TRIPOS>MOLECULE
*****
 19 21 0 0 0
SMALL
GASTEIGER

@<TRIPOS>ATOM
      1 C         142.7403  141.8201  167.2107 C.3     1  UNL1        0.0364
      2 C         142.9480  142.3086  168.6137 C.3     1  UNL1        0.0236
      3 C         142.8486  142.8594  170.0053 C.3     1  UNL1        0.0690
      4 N         141.4229  143.2592  170.2448 N.3     1  UNL1       -0.2972
      5 C         140.6411  142.9555  169.0012 C.3     1  UNL1        0.0727
      6 C         141.5837  142.3680  167.9931 C.3     1  UNL1        0.0372
      7 H         141.3730  144.2571  170.4500 H       1  UNL1        0.1233
      8 C         140.5601  142.1789  166.9130 C.ar    1  UNL1       -0.0205
      9 C         140.2673  143.2941  165.9536 C.ar    1  UNL1       -0.0033
     10 C         139.2438  143.1050  164.8735 C.ar    1  UNL1        0.0119
     11 C         138.5131  141.8006  164.7528 C.ar    1  UNL1        0.0682
     12 CL        137.4895  141.6115  163.6727 Cl      1  UNL1       -0.0814
     13 C         138.8059  140.6854  165.7122 C.ar    1  UNL1        0.0679
     14 CL        138.0751  139.3809  165.5916 Cl      1  UNL1       -0.0814
     15 C         139.8294  140.8745  166.7923 C.ar    1  UNL1        0.0080
     16 C         143.2881  141.2217  165.9491 C.3     1  UNL1        0.1425
     17 O         144.2235  142.0163  165.0867 O.3     1  UNL1       -0.3538
     18 C         143.7877  144.4684  164.3469 C.3     1  UNL1        0.0346
     19 C         144.3845  143.4901  165.3148 C.3     1  UNL1        0.1422
@<TRIPOS>BOND
     1    18    19    1
     2    19    17    1
     3    17    16    1
     4     1    16    1
     5     1     2    1
     6     2     3    1
     7     3     4    1
     8     4     5    1
     9     5     6    1
    10     6     8    1
    11     8     9   ar
    12     9    10   ar
    13    10    11   ar
    14    11    12    1
    15    11    13   ar
    16    13    14    1
    17    13    15   ar
    18     6     1    1
    19    15     8   ar
    20     6     2    1
    21     4     7    1
@<TRIPOS>MOLECULE
*****
 19 21 0 0 0
SMALL
GASTEIGER

@<TRIPOS>ATOM
      1 C         142.7163  142.1140  167.1565 C.3     1  UNL1        0.0364
      2 C         142.9064  142.4191  168.6127 C.3     1  UNL1        0.0236
      3 C         142.7841  142.7495  170.0708 C.3     1  UNL1        0.0690
      4 N         141.3287  142.9339  170.3837 N.3     1  UNL1       -0.2972
      5 C         140.5516  142.7175  169.1190 C.3     1  UNL1        0.0727
      6 C         141.5267  142.3994  168.0245 C.3     1  UNL1        0.0372
      7 H         141.1666  143.8787  170.7322 H       1  UNL1        0.1233
      8 C         140.5009  142.2427  166.9413 C.ar    1  UNL1       -0.0205
      9 C         140.1259  143.4178  166.0879 C.ar    1  UNL1       -0.0033
     10 C         139.1001  143.2611  165.0047 C.ar    1  UNL1        0.0119
     11 C         138.4495  141.9293  164.7750 C.ar    1  UNL1        0.0682
     12 CL        137.4237  141.7726  163.6918 Cl      1  UNL1       -0.0814
     13 C         138.8245  140.7541  165.6284 C.ar    1  UNL1        0.0679
     14 CL        138.1739  139.4222  165.3987 Cl      1  UNL1       -0.0814
     15 C         139.8503  140.9109  166.7116 C.ar    1  UNL1        0.0080
     16 C         143.2933  141.7731  165.8145 C.3     1  UNL1        0.1425
     17 O         143.5714  140.3425  165.4592 O.3     1  UNL1       -0.3538
     18 C         143.8264  138.0194  166.5940 C.3     1  UNL1        0.0346
     19 C         143.0020  139.2371  166.2982 C.3     1  UNL1        0.1422
@<TRIPOS>BOND
     1    18    19    1
     2    19    17    1
     3    17    16    1
     4     1    16    1
     5     1     2    1
     6     2     3    1
     7     3     4    1
     8     4     5    1
     9     5     6    1
    10     6     8    1
    11     8     9   ar
    12     9    10   ar
    13    10    11   ar
    14    11    12    1
    15    11    13   ar
    16    13    14    1
    17    13    15   ar
    18     6     1    1
    19    15     8   ar
    20     6     2    1
    21     4     7    1
@<TRIPOS>MOLECULE
*****
 19 21 0 0 0
SMALL
GASTEIGER

@<TRIPOS>ATOM
      1 C         142.6429  142.0567  166.8165 C.3     1  UNL1        0.0364
      2 C         142.8781  142.3024  168.2775 C.3     1  UNL1        0.0236
      3 C         142.8011  142.5762  169.7503 C.3     1  UNL1        0.0690
      4 N         141.3574  142.7620  170.1123 N.3     1  UNL1       -0.2972
      5 C         140.5421  142.6030  168.8633 C.3     1  UNL1        0.0727
      6 C         141.4819  142.3190  167.7293 C.3     1  UNL1        0.0372
      7 H         141.2155  143.6938  170.5021 H       1  UNL1        0.1233
      8 C         140.4239  142.2149  166.6711 C.ar    1  UNL1       -0.0205
      9 C         139.8197  140.8817  166.3432 C.ar    1  UNL1       -0.0033
     10 C         138.7617  140.7776  165.2850 C.ar    1  UNL1        0.0119
     11 C         138.3078  142.0067  164.5548 C.ar    1  UNL1        0.0682
     12 CL        137.2498  141.9025  163.4966 Cl      1  UNL1       -0.0814
     13 C         138.9120  143.3399  164.8828 C.ar    1  UNL1        0.0679
     14 CL        138.4580  144.5691  164.1525 Cl      1  UNL1       -0.0814
     15 C         139.9700  143.4440  165.9410 C.ar    1  UNL1        0.0080
     16 C         143.1775  141.7635  165.4461 C.3     1  UNL1        0.1425
     17 O         143.8613  140.4569  165.1715 O.3     1  UNL1       -0.3538
     18 C         145.7523  141.5752  163.7846 C.3     1  UNL1        0.0346
     19 C         144.9179  140.3720  164.1101 C.3     1  UNL1        0.1422
@<TRIPOS>BOND
     1    18    19    1
     2    19    17    1
     3    17    16    1
     4     1    16    1
     5     1     2    1
     6     2     3    1
     7     3     4    1
     8     4     5    1
     9     5     6    1
    10     6     8    1
    11     8     9   ar
    12     9    10   ar
    13    10    11   ar
    14    11    12    1
    15    11    13   ar
    16    13    14    1
    17    13    15   ar
    18     6     1    1
    19    15     8   ar
    20     6     2    1
    21     4     7    1
@<TRIPOS>MOLECULE
*****
 19 21 0 0 0
SMALL
GASTEIGER

@<TRIPOS>ATOM
      1 C         140.5464  142.2285  167.2231 C.3     1  UNL1        0.0364
      2 C         140.6597  142.8773  168.5707 C.3     1  UNL1        0.0236
      3 C         141.0737  143.4394  169.8984 C.3     1  UNL1        0.0690
      4 N         142.5358  143.1602  170.0843 N.3     1  UNL1       -0.2972
      5 C         143.0253  142.4256  168.8716 C.3     1  UNL1        0.0727
      6 C         141.8658  142.2508  167.9361 C.3     1  UNL1        0.0372
      7 H         142.6756  142.5869  170.9162 H       1  UNL1        0.1233
      8 C         142.6312  141.5208  166.8724 C.ar    1  UNL1       -0.0205
      9 C         142.5849  140.0228  166.8095 C.ar    1  UNL1       -0.0033
     10 C         143.3503  139.2929  165.7458 C.ar    1  UNL1        0.0119
     11 C         144.1619  140.0609  164.7452 C.ar    1  UNL1        0.0682
     12 CL        144.9273  139.3309  163.6815 Cl      1  UNL1       -0.0814
     13 C         144.2082  141.5588  164.8082 C.ar    1  UNL1        0.0679
     14 CL        145.0199  142.3269  163.8074 Cl      1  UNL1       -0.0814
     15 C         143.4428  142.2888  165.8718 C.ar    1  UNL1        0.0080
     16 C         139.7191  141.8411  166.0333 C.3     1  UNL1        0.1425
     17 O         139.7410  142.6892  164.7963 O.3     1  UNL1       -0.3538
     18 C         141.2808  144.6402  164.0397 C.3     1  UNL1        0.0346
     19 C         140.1494  144.1300  164.8821 C.3     1  UNL1        0.1422
@<TRIPOS>BOND
     1    18    19    1
     2    19    17    1
     3    17    16    1
     4     1    16    1
     5     1     2    1
     6     2     3    1
     7     3     4    1
     8     4     5    1
     9     5     6    1
    10     6     8    1
    11     8     9   ar
    12     9    10   ar
    13    10    11   ar
    14    11    12    1
    15    11    13   ar
    16    13    14    1
    17    13    15   ar
    18     6     1    1
    19    15     8   ar
    20     6     2    1
    21     4     7    1
@<TRIPOS>MOLECULE
*****
 19 21 0 0 0
SMALL
GASTEIGER

@<TRIPOS>ATOM
      1 C         138.4693  141.5581  164.6119 C.3     1  UNL1        0.0364
      2 C         138.1933  143.0278  164.4937 C.3     1  UNL1        0.0236
      3 C         138.2216  144.5267  164.4456 C.3     1  UNL1        0.0690
      4 N         139.6191  144.9742  164.7563 N.3     1  UNL1       -0.2972
      5 C         140.4547  143.7518  164.9964 C.3     1  UNL1        0.0727
      6 C         139.5735  142.5488  164.8341 C.3     1  UNL1        0.0372
      7 H         139.6172  145.5614  165.5903 H       1  UNL1        0.1233
      8 C         140.6398  141.5335  165.1206 C.ar    1  UNL1       -0.0205
      9 C         141.4581  140.9681  163.9978 C.ar    1  UNL1       -0.0033
     10 C         142.5245  139.9528  164.2844 C.ar    1  UNL1        0.0119
     11 C         142.7725  139.5030  165.6936 C.ar    1  UNL1        0.0682
     12 CL        143.8388  138.4877  165.9801 Cl      1  UNL1       -0.0814
     13 C         141.9542  140.0684  166.8164 C.ar    1  UNL1        0.0679
     14 CL        142.2022  139.6186  168.2257 Cl      1  UNL1       -0.0814
     15 C         140.8878  141.0837  166.5298 C.ar    1  UNL1        0.0080
     16 C         137.9912  140.1377  164.5518 C.3     1  UNL1        0.1425
     17 O         137.9635  139.3023  165.7974 O.3     1  UNL1       -0.3538
     18 C         139.6663  137.5854  164.8472 C.3     1  UNL1        0.0346
     19 C         138.5454  137.9198  165.7862 C.3     1  UNL1        0.1422
@<TRIPOS>BOND
     1    18    19    1
     2    19    17    1
     3    17    16    1
     4     1    16    1
     5     1     2    1
     6     2     3    1
     7     3     4    1
     8     4     5    1
     9     5     6    1
    10     6     8    1
    11     8     9   ar
    12     9    10   ar
    13    10    11   ar
    14    11    12    1
    15    11    13   ar
    16    13    14    1
    17    13    15   ar
    18     6     1    1
    19    15     8   ar
    20     6     2    1
    21     4     7    1
@<TRIPOS>MOLECULE
*****
 19 21 0 0 0
SMALL
GASTEIGER

@<TRIPOS>ATOM
      1 C         141.4819  137.8282  163.4112 C.3     1  UNL1        0.0364
      2 C         142.3131  137.7868  162.1632 C.3     1  UNL1        0.0236
      3 C         143.3397  137.9282  161.0788 C.3     1  UNL1        0.0690
      4 N         144.4483  138.7938  161.6000 N.3     1  UNL1       -0.2972
      5 C         144.1069  139.1874  163.0066 C.3     1  UNL1        0.0727
      6 C         142.7872  138.5650  163.3547 C.3     1  UNL1        0.0372
      7 H         144.5385  139.6276  161.0195 H       1  UNL1        0.1233
      8 C         142.7186  139.1127  164.7495 C.ar    1  UNL1       -0.0205
      9 C         143.2131  138.2911  165.9030 C.ar    1  UNL1       -0.0033
     10 C         143.1445  138.8387  167.2977 C.ar    1  UNL1        0.0119
     11 C         142.5815  140.2079  167.5390 C.ar    1  UNL1        0.0682
     12 CL        142.5129  140.7556  168.9338 Cl      1  UNL1       -0.0814
     13 C         142.0870  141.0295  166.3855 C.ar    1  UNL1        0.0679
     14 CL        141.5239  142.3988  166.6268 Cl      1  UNL1       -0.0814
     15 C         142.1556  140.4818  164.9907 C.ar    1  UNL1        0.0080
     16 C         140.2484  137.4266  164.1643 C.3     1  UNL1        0.1425
     17 O         138.9268  138.0503  163.8261 O.3     1  UNL1       -0.3538
     18 C         138.3079  140.1986  165.1496 C.3     1  UNL1        0.0346
     19 C         138.7647  139.5406  163.8814 C.3     1  UNL1        0.1422
@<TRIPOS>BOND
     1    18    19    1
     2    19    17    1
     3    17    16    1
     4     1    16    1
     5     1     2    1
     6     2     3    1
     7     3     4    1
     8     4     5    1
     9     5     6    1
    10     6     8    1
    11     8     9   ar
    12     9    10   ar
    13    10    11   ar
    14    11    12    1
    15    11    13   ar
    16    13    14    1
    17    13    15   ar
    18     6     1    1
    19    15     8   ar
    20     6     2    1
    21     4     7    1
