@<TRIPOS>MOLECULE
*****
 43 48 0 0 0
SMALL
GASTEIGER

@<TRIPOS>ATOM
      1 N         138.1947  139.3010  166.0111 N.pl3   1  UNL1       -0.2801
      2 H         137.2744  139.0837  166.2852 H       1  UNL1        0.1552
      3 C         138.1988  139.9667  163.4997 C.ar    1  UNL1        0.1477
      4 C         138.6370  139.0468  164.6006 C.ar    1  UNL1        0.0846
      5 C         139.5176  137.8726  164.2908 C.ar    1  UNL1        0.0174
      6 C         139.9600  137.6183  162.8802 C.ar    1  UNL1       -0.0031
      7 C         139.5217  138.5383  161.7794 C.ar    1  UNL1       -0.0218
      8 C         138.6412  139.7123  162.0892 C.ar    1  UNL1        0.0091
      9 C         138.0940  140.7450  161.1487 C.3     1  UNL1        0.0292
     10 C         138.2923  140.8583  159.6662 C.3     1  UNL1        0.0062
     11 C         139.0867  139.9672  158.7581 C.3     1  UNL1        0.0166
     12 C         139.8790  138.7426  159.1081 C.3     1  UNL1        0.0619
     13 C         140.0727  138.1066  160.4527 C.3     1  UNL1        0.0421
     14 N         140.5690  138.0642  157.9619 N.3     1  UNL1       -0.2713
     15 C         139.7683  137.5525  156.8013 C.3     1  UNL1        0.0896
     16 C         140.4583  136.8740  155.6550 C.3     1  UNL1        0.0897
     17 N         141.9489  136.7074  155.6694 N.3     1  UNL1       -0.2691
     18 C         142.6389  136.0290  154.5233 C.3     1  UNL1        0.0897
     19 C         142.7496  137.2192  156.8301 C.3     1  UNL1        0.0897
     20 C         142.0596  137.8976  157.9763 C.3     1  UNL1        0.0896
     21 C         137.9249  142.4308  164.2761 C.3     1  UNL1        0.2525
     22 O         137.3182  141.1408  163.8095 O.3     1  UNL1       -0.4705
     23 C         139.1546  139.8863  167.0041 C.ar    1  UNL1        0.2219
     24 N         138.9377  139.6724  168.4729 N.ar    1  UNL1       -0.2110
     25 C         139.8975  140.2576  169.4659 C.ar    1  UNL1        0.1160
     26 C         141.0744  141.0568  168.9902 C.ar    1  UNL1        0.1082
     27 CL        142.0343  141.6420  169.9832 Cl      1  UNL1       -0.0777
     28 C         141.2914  141.2707  167.5214 C.ar    1  UNL1        0.1435
     29 N         140.3315  140.6855  166.5284 N.ar    1  UNL1       -0.1979
     30 N         142.4682  142.0699  167.0456 N.pl3   1  UNL1       -0.3181
     31 H         142.6885  142.9266  167.4777 H       1  UNL1        0.1482
     32 C         143.3094  141.5638  165.9116 C.3     1  UNL1        0.0832
     33 C         144.2250  142.3886  165.0565 C.3     1  UNL1        0.0984
     34 C         144.8642  141.4786  164.0499 C.3     1  UNL1        0.0323
     35 C         144.9375  140.0587  163.5718 C.2     1  UNL1       -0.0304
     36 C         144.0219  139.2338  164.4269 C.2     1  UNL1       -0.0294
     37 C         143.3827  140.1439  165.4335 C.3     1  UNL1        0.0404
     38 C         143.9033  141.5313  165.2005 C.3     1  UNL1        0.0109
     39 C         144.4603  143.8645  165.1853 C.2     1  UNL1        0.2208
     40 N         143.7599  144.8188  164.2640 N.am    1  UNL1       -0.3288
     41 O         145.3958  144.3860  166.2354 O.2     1  UNL1       -0.2753
     42 H         143.1459  144.4765  163.5748 H       1  UNL1        0.1449
     43 H         143.9143  145.7875  164.3486 H       1  UNL1        0.1449
@<TRIPOS>BOND
     1    21    22    1
     2    22     3    1
     3     3     4   ar
     4     4     1    1
     5     1    23    1
     6    23    24   ar
     7    24    25   ar
     8    25    26   ar
     9    26    27    1
    10    26    28   ar
    11    28    30    1
    12    32    30    1
    13    32    33    1
    14    33    39    1
    15    39    40   am
    16    39    41    2
    17    33    34    1
    18    34    35    1
    19    35    36    2
    20    37    36    1
    21    37    38    1
    22    28    29   ar
    23     4     5   ar
    24     5     6   ar
    25     6     7   ar
    26     7     8   ar
    27     8     9    1
    28     9    10    1
    29    10    11    1
    30    11    12    1
    31    12    14    1
    32    14    15    1
    33    15    16    1
    34    16    17    1
    35    17    18    1
    36    17    19    1
    37    19    20    1
    38    12    13    1
    39     8     3   ar
    40    20    14    1
    41    29    23   ar
    42    13     7    1
    43    37    32    1
    44    38    34    1
    45     1     2    1
    46    30    31    1
    47    40    42    1
    48    40    43    1
@<TRIPOS>MOLECULE
*****
 43 48 0 0 0
SMALL
GASTEIGER

@<TRIPOS>ATOM
      1 N         143.8081  138.7363  165.7597 N.pl3   1  UNL1       -0.2801
      2 H         144.3731  137.9833  166.0479 H       1  UNL1        0.1552
      3 C         142.9570  138.5411  163.3127 C.ar    1  UNL1        0.1477
      4 C         143.8416  139.1956  164.3321 C.ar    1  UNL1        0.0846
      5 C         144.7597  140.3093  163.9240 C.ar    1  UNL1        0.0174
      6 C         144.7932  140.7687  162.4964 C.ar    1  UNL1       -0.0031
      7 C         143.9085  140.1141  161.4770 C.ar    1  UNL1       -0.0218
      8 C         142.9905  139.0005  161.8852 C.ar    1  UNL1        0.0091
      9 C         142.0338  138.2179  161.0352 C.3     1  UNL1        0.0292
     10 C         141.7590  138.3559  159.5670 C.3     1  UNL1        0.0062
     11 C         142.3730  139.3104  158.5864 C.3     1  UNL1        0.0166
     12 C         143.4134  140.3628  158.8315 C.3     1  UNL1        0.0619
     13 C         144.0968  140.7205  160.1180 C.3     1  UNL1        0.0421
     14 N         143.8248  141.1633  157.6316 N.3     1  UNL1       -0.2713
     15 C         142.8873  142.1802  157.0510 C.3     1  UNL1        0.0896
     16 C         143.2987  142.9807  155.8509 C.3     1  UNL1        0.0897
     17 N         144.6477  142.7644  155.2316 N.3     1  UNL1       -0.2691
     18 C         145.0591  143.5649  154.0317 C.3     1  UNL1        0.0897
     19 C         145.5852  141.7475  155.8122 C.3     1  UNL1        0.0897
     20 C         145.1737  140.9470  157.0122 C.3     1  UNL1        0.0896
     21 C         140.7088  137.7404  164.3395 C.3     1  UNL1        0.2525
     22 O         142.0388  137.4274  163.7209 O.3     1  UNL1       -0.4705
     23 C         142.9139  139.4244  166.7481 C.ar    1  UNL1        0.2219
     24 N         142.9125  138.9937  168.1850 N.ar    1  UNL1       -0.2110
     25 C         142.0183  139.6817  169.1733 C.ar    1  UNL1        0.1160
     26 C         141.1255  140.8006  168.7249 C.ar    1  UNL1        0.1082
     27 CL        140.2313  141.4887  169.7133 Cl      1  UNL1       -0.0777
     28 C         141.1269  141.2314  167.2881 C.ar    1  UNL1        0.1435
     29 N         142.0211  140.5433  166.2997 N.ar    1  UNL1       -0.1979
     30 N         140.2342  142.3503  166.8396 N.pl3   1  UNL1       -0.3181
     31 H         140.2480  143.2120  167.3156 H       1  UNL1        0.1482
     32 C         139.3205  142.1563  165.6660 C.3     1  UNL1        0.0832
     33 C         138.7567  143.2424  164.7986 C.3     1  UNL1        0.0984
     34 C         137.8978  142.5996  163.7502 C.3     1  UNL1        0.0323
     35 C         137.3874  141.2854  163.2380 C.2     1  UNL1       -0.0304
     36 C         137.9512  140.1993  164.1055 C.2     1  UNL1       -0.0294
     37 C         138.8100  140.8421  165.1538 C.3     1  UNL1        0.0404
     38 C         138.7770  142.3257  164.9342 C.3     1  UNL1        0.0109
     39 C         139.0077  144.7133  164.9524 C.2     1  UNL1        0.2208
     40 N         139.9437  145.4165  164.0147 N.am    1  UNL1       -0.3288
     41 O         138.3227  145.4809  166.0441 O.2     1  UNL1       -0.2753
     42 H         140.3933  144.9127  163.2982 H       1  UNL1        0.1449
     43 H         140.1085  146.3819  164.1156 H       1  UNL1        0.1449
@<TRIPOS>BOND
     1    21    22    1
     2    22     3    1
     3     3     4   ar
     4     4     1    1
     5     1    23    1
     6    23    24   ar
     7    24    25   ar
     8    25    26   ar
     9    26    27    1
    10    26    28   ar
    11    28    30    1
    12    32    30    1
    13    32    33    1
    14    33    39    1
    15    39    40   am
    16    39    41    2
    17    33    34    1
    18    34    35    1
    19    35    36    2
    20    37    36    1
    21    37    38    1
    22    28    29   ar
    23     4     5   ar
    24     5     6   ar
    25     6     7   ar
    26     7     8   ar
    27     8     9    1
    28     9    10    1
    29    10    11    1
    30    11    12    1
    31    12    14    1
    32    14    15    1
    33    15    16    1
    34    16    17    1
    35    17    18    1
    36    17    19    1
    37    19    20    1
    38    12    13    1
    39     8     3   ar
    40    20    14    1
    41    29    23   ar
    42    13     7    1
    43    37    32    1
    44    38    34    1
    45     1     2    1
    46    30    31    1
    47    40    42    1
    48    40    43    1
@<TRIPOS>MOLECULE
*****
 43 48 0 0 0
SMALL
GASTEIGER

@<TRIPOS>ATOM
      1 N         138.0023  139.2695  166.6653 N.pl3   1  UNL1       -0.2801
      2 H         137.0508  139.1317  166.8771 H       1  UNL1        0.1552
      3 C         138.5870  140.2409  164.3276 C.ar    1  UNL1        0.1477
      4 C         138.4948  139.0714  165.2624 C.ar    1  UNL1        0.0846
      5 C         138.8951  137.7037  164.7943 C.ar    1  UNL1        0.0174
      6 C         139.3876  137.5054  163.3913 C.ar    1  UNL1       -0.0031
      7 C         139.4797  138.6750  162.4566 C.ar    1  UNL1       -0.0218
      8 C         139.0795  140.0426  162.9248 C.ar    1  UNL1        0.0091
      9 C         139.0938  141.3339  162.1615 C.3     1  UNL1        0.0292
     10 C         139.5120  141.5762  160.7414 C.3     1  UNL1        0.0062
     11 C         140.0191  140.5873  159.7341 C.3     1  UNL1        0.0166
     12 C         140.2333  139.1117  159.8978 C.3     1  UNL1        0.0619
     13 C         139.9932  138.2607  161.1095 C.3     1  UNL1        0.0421
     14 N         140.7567  138.3921  158.6904 N.3     1  UNL1       -0.2713
     15 C         139.8164  137.9805  157.5964 C.3     1  UNL1        0.0896
     16 C         140.3399  137.2608  156.3888 C.3     1  UNL1        0.0897
     17 N         141.8035  136.9527  156.2752 N.3     1  UNL1       -0.2691
     18 C         142.3269  136.2331  155.0677 C.3     1  UNL1        0.0897
     19 C         142.7438  137.3643  157.3692 C.3     1  UNL1        0.0897
     20 C         142.2203  138.0840  158.5767 C.3     1  UNL1        0.0896
     21 C         139.2244  142.5537  165.3249 C.3     1  UNL1        0.2525
     22 O         138.1867  141.6086  164.7958 O.3     1  UNL1       -0.4705
     23 C         138.9597  139.6777  167.7456 C.ar    1  UNL1        0.2219
     24 N         138.5152  139.6850  169.1783 N.ar    1  UNL1       -0.2110
     25 C         139.4725  140.0932  170.2585 C.ar    1  UNL1        0.1160
     26 C         140.8744  140.4940  169.9061 C.ar    1  UNL1        0.1082
     27 CL        141.8317  140.9022  170.9863 Cl      1  UNL1       -0.0777
     28 C         141.3189  140.4867  168.4734 C.ar    1  UNL1        0.1435
     29 N         140.3615  140.0785  167.3932 N.ar    1  UNL1       -0.1979
     30 N         142.7207  140.8875  168.1210 N.pl3   1  UNL1       -0.3181
     31 H         143.4083  140.9426  168.8235 H       1  UNL1        0.1482
     32 C         143.0749  141.2045  166.6984 C.3     1  UNL1        0.0832
     33 C         143.3377  140.2048  165.6114 C.3     1  UNL1        0.0984
     34 C         143.6538  140.9593  164.3541 C.3     1  UNL1        0.0323
     35 C         143.8075  142.3317  163.7686 C.2     1  UNL1       -0.0304
     36 C         143.5447  143.3314  164.8555 C.2     1  UNL1       -0.0294
     37 C         143.2286  142.5769  166.1129 C.3     1  UNL1        0.0404
     38 C         143.2961  141.1108  165.8029 C.3     1  UNL1        0.0109
     39 C         143.2924  138.7124  165.7563 C.2     1  UNL1        0.2208
     40 N         142.5425  137.8842  164.7555 N.am    1  UNL1       -0.3288
     41 O         143.9969  138.0484  166.9021 O.2     1  UNL1       -0.2753
     42 H         142.0801  138.3200  164.0035 H       1  UNL1        0.1449
     43 H         142.5128  136.9047  164.8506 H       1  UNL1        0.1449
@<TRIPOS>BOND
     1    21    22    1
     2    22     3    1
     3     3     4   ar
     4     4     1    1
     5     1    23    1
     6    23    24   ar
     7    24    25   ar
     8    25    26   ar
     9    26    27    1
    10    26    28   ar
    11    28    30    1
    12    32    30    1
    13    32    33    1
    14    33    39    1
    15    39    40   am
    16    39    41    2
    17    33    34    1
    18    34    35    1
    19    35    36    2
    20    37    36    1
    21    37    38    1
    22    28    29   ar
    23     4     5   ar
    24     5     6   ar
    25     6     7   ar
    26     7     8   ar
    27     8     9    1
    28     9    10    1
    29    10    11    1
    30    11    12    1
    31    12    14    1
    32    14    15    1
    33    15    16    1
    34    16    17    1
    35    17    18    1
    36    17    19    1
    37    19    20    1
    38    12    13    1
    39     8     3   ar
    40    20    14    1
    41    29    23   ar
    42    13     7    1
    43    37    32    1
    44    38    34    1
    45     1     2    1
    46    30    31    1
    47    40    42    1
    48    40    43    1
@<TRIPOS>MOLECULE
*****
 43 48 0 0 0
SMALL
GASTEIGER

@<TRIPOS>ATOM
      1 N         138.4520  139.4010  166.2858 N.pl3   1  UNL1       -0.2801
      2 H         137.7642  138.7995  166.6523 H       1  UNL1        0.1552
      3 C         138.9046  138.9153  163.7739 C.ar    1  UNL1        0.1477
      4 C         138.3883  139.8256  164.8485 C.ar    1  UNL1        0.0846
      5 C         137.8083  141.1606  164.4859 C.ar    1  UNL1        0.0174
      6 C         137.7445  141.5852  163.0487 C.ar    1  UNL1       -0.0031
      7 C         138.2609  140.6749  161.9741 C.ar    1  UNL1       -0.0218
      8 C         138.8408  139.3400  162.3367 C.ar    1  UNL1        0.0091
      9 C         139.4068  138.2884  161.4290 C.3     1  UNL1        0.0292
     10 C         139.5325  138.3121  159.9344 C.3     1  UNL1        0.0062
     11 C         139.1233  139.3932  158.9785 C.3     1  UNL1        0.0166
     12 C         138.4873  140.7176  159.2810 C.3     1  UNL1        0.0619
     13 C         138.1035  141.2880  160.6142 C.3     1  UNL1        0.0421
     14 N         138.1968  141.5864  158.0934 N.3     1  UNL1       -0.2713
     15 C         139.0309  142.8060  157.8342 C.3     1  UNL1        0.0896
     16 C         138.7402  143.6749  156.6465 C.3     1  UNL1        0.0897
     17 N         137.6156  143.3243  155.7179 N.3     1  UNL1       -0.2691
     18 C         137.3251  144.1931  154.5302 C.3     1  UNL1        0.0897
     19 C         136.7815  142.1047  155.9770 C.3     1  UNL1        0.0897
     20 C         137.0721  141.2358  157.1648 C.3     1  UNL1        0.0896
     21 C         140.9152  137.4785  164.5756 C.3     1  UNL1        0.2525
     22 O         139.4846  137.5803  164.1365 O.3     1  UNL1       -0.4705
     23 C         139.5637  139.8929  167.1645 C.ar    1  UNL1        0.2219
     24 N         139.4805  139.7121  168.6513 N.ar    1  UNL1       -0.2110
     25 C         140.5922  140.2040  169.5300 C.ar    1  UNL1        0.1160
     26 C         141.7871  140.8767  168.9220 C.ar    1  UNL1        0.1082
     27 CL        142.8988  141.3686  169.8007 Cl      1  UNL1       -0.0777
     28 C         141.8704  141.0575  167.4352 C.ar    1  UNL1        0.1435
     29 N         140.7587  140.5656  166.5565 N.ar    1  UNL1       -0.1979
     30 N         143.0652  141.7301  166.8271 N.pl3   1  UNL1       -0.3181
     31 H         143.5877  142.3766  167.3547 H       1  UNL1        0.1482
     32 C         143.4641  141.4178  165.4154 C.3     1  UNL1        0.0832
     33 C         143.3724  142.3526  164.2459 C.3     1  UNL1        0.0984
     34 C         143.8764  141.6284  163.0328 C.3     1  UNL1        0.0323
     35 C         144.4371  140.3263  162.5426 C.2     1  UNL1       -0.0304
     36 C         144.5289  139.3915  163.7121 C.2     1  UNL1       -0.0294
     37 C         144.0249  140.1158  164.9251 C.3     1  UNL1        0.0404
     38 C         143.6216  141.4983  164.5053 C.3     1  UNL1        0.0109
     39 C         142.8656  143.7640  164.2829 C.2     1  UNL1        0.2208
     40 N         143.8324  144.9096  164.2307 N.am    1  UNL1       -0.3288
     41 O         141.3920  144.0296  164.3721 O.2     1  UNL1       -0.2753
     42 H         144.7995  144.7353  164.1721 H       1  UNL1        0.1449
     43 H         143.4997  145.8359  164.2550 H       1  UNL1        0.1449
@<TRIPOS>BOND
     1    21    22    1
     2    22     3    1
     3     3     4   ar
     4     4     1    1
     5     1    23    1
     6    23    24   ar
     7    24    25   ar
     8    25    26   ar
     9    26    27    1
    10    26    28   ar
    11    28    30    1
    12    32    30    1
    13    32    33    1
    14    33    39    1
    15    39    40   am
    16    39    41    2
    17    33    34    1
    18    34    35    1
    19    35    36    2
    20    37    36    1
    21    37    38    1
    22    28    29   ar
    23     4     5   ar
    24     5     6   ar
    25     6     7   ar
    26     7     8   ar
    27     8     9    1
    28     9    10    1
    29    10    11    1
    30    11    12    1
    31    12    14    1
    32    14    15    1
    33    15    16    1
    34    16    17    1
    35    17    18    1
    36    17    19    1
    37    19    20    1
    38    12    13    1
    39     8     3   ar
    40    20    14    1
    41    29    23   ar
    42    13     7    1
    43    37    32    1
    44    38    34    1
    45     1     2    1
    46    30    31    1
    47    40    42    1
    48    40    43    1
@<TRIPOS>MOLECULE
*****
 43 48 0 0 0
SMALL
GASTEIGER

@<TRIPOS>ATOM
      1 N         143.8369  142.8644  165.9618 N.pl3   1  UNL1       -0.2801
      2 H         144.7428  143.1396  166.2316 H       1  UNL1        0.1552
      3 C         144.1032  142.7050  163.3822 C.ar    1  UNL1        0.1477
      4 C         143.3375  143.1775  164.5824 C.ar    1  UNL1        0.0846
      5 C         142.0723  143.9632  164.4032 C.ar    1  UNL1        0.0174
      6 C         141.5729  144.2763  163.0239 C.ar    1  UNL1       -0.0031
      7 C         142.3387  143.8037  161.8237 C.ar    1  UNL1       -0.0218
      8 C         143.6038  143.0181  162.0030 C.ar    1  UNL1        0.0091
      9 C         144.5129  142.4563  160.9503 C.3     1  UNL1        0.0292
     10 C         144.3812  142.5414  159.4585 C.3     1  UNL1        0.0062
     11 C         143.3081  143.2092  158.6510 C.3     1  UNL1        0.0166
     12 C         142.1015  143.9570  159.1356 C.3     1  UNL1        0.0619
     13 C         141.6700  144.2216  160.5477 C.3     1  UNL1        0.0421
     14 N         141.2082  144.5139  158.0670 N.3     1  UNL1       -0.2713
     15 C         140.0385  143.7139  157.5752 C.3     1  UNL1        0.0896
     16 C         139.1452  144.2708  156.5065 C.3     1  UNL1        0.0897
     17 N         139.4216  145.6276  155.9297 N.3     1  UNL1       -0.2691
     18 C         138.5284  146.1844  154.8611 C.3     1  UNL1        0.0897
     19 C         140.5914  146.4276  156.4215 C.3     1  UNL1        0.0897
     20 C         141.4847  145.8707  157.4902 C.3     1  UNL1        0.0896
     21 C         145.3038  140.4711  163.9464 C.3     1  UNL1        0.2525
     22 O         145.3684  141.9193  163.5614 O.3     1  UNL1       -0.4705
     23 C         142.9559  142.1321  166.9300 C.ar    1  UNL1        0.2219
     24 N         143.1741  142.2850  168.4062 N.ar    1  UNL1       -0.2110
     25 C         142.2932  141.5527  169.3745 C.ar    1  UNL1        0.1160
     26 C         141.1938  140.6675  168.8666 C.ar    1  UNL1        0.1082
     27 CL        140.3128  139.9351  169.8348 Cl      1  UNL1       -0.0777
     28 C         140.9755  140.5145  167.3904 C.ar    1  UNL1        0.1435
     29 N         141.8565  141.2469  166.4221 N.ar    1  UNL1       -0.1979
     30 N         139.8763  139.6293  166.8825 N.pl3   1  UNL1       -0.3181
     31 H         139.1348  139.3744  167.4779 H       1  UNL1        0.1482
     32 C         139.9066  139.1326  165.4675 C.3     1  UNL1        0.0832
     33 C         139.2106  139.7616  164.2971 C.3     1  UNL1        0.0984
     34 C         139.5122  138.9374  163.0807 C.3     1  UNL1        0.0323
     35 C         140.2439  137.7244  162.5876 C.2     1  UNL1       -0.0304
     36 C         140.9400  137.0954  163.7580 C.2     1  UNL1       -0.0294
     37 C         140.6384  137.9196  164.9745 C.3     1  UNL1        0.0404
     38 C         139.7559  139.0581  164.5558 C.3     1  UNL1        0.0109
     39 C         138.3619  140.9979  164.3362 C.2     1  UNL1        0.2208
     40 N         137.0711  141.0460  163.5736 N.am    1  UNL1       -0.3288
     41 O         138.8041  142.1861  165.1380 O.2     1  UNL1       -0.2753
     42 H         136.7810  140.2661  163.0474 H       1  UNL1        0.1449
     43 H         136.5141  141.8573  163.5993 H       1  UNL1        0.1449
@<TRIPOS>BOND
     1    21    22    1
     2    22     3    1
     3     3     4   ar
     4     4     1    1
     5     1    23    1
     6    23    24   ar
     7    24    25   ar
     8    25    26   ar
     9    26    27    1
    10    26    28   ar
    11    28    30    1
    12    32    30    1
    13    32    33    1
    14    33    39    1
    15    39    40   am
    16    39    41    2
    17    33    34    1
    18    34    35    1
    19    35    36    2
    20    37    36    1
    21    37    38    1
    22    28    29   ar
    23     4     5   ar
    24     5     6   ar
    25     6     7   ar
    26     7     8   ar
    27     8     9    1
    28     9    10    1
    29    10    11    1
    30    11    12    1
    31    12    14    1
    32    14    15    1
    33    15    16    1
    34    16    17    1
    35    17    18    1
    36    17    19    1
    37    19    20    1
    38    12    13    1
    39     8     3   ar
    40    20    14    1
    41    29    23   ar
    42    13     7    1
    43    37    32    1
    44    38    34    1
    45     1     2    1
    46    30    31    1
    47    40    42    1
    48    40    43    1
@<TRIPOS>MOLECULE
*****
 43 48 0 0 0
SMALL
GASTEIGER

@<TRIPOS>ATOM
      1 N         144.1022  143.2881  165.8892 N.pl3   1  UNL1       -0.2801
      2 H         144.9546  143.7126  166.1389 H       1  UNL1        0.1552
      3 C         144.2035  142.9539  163.3147 C.ar    1  UNL1        0.1477
      4 C         143.5210  143.5176  164.5256 C.ar    1  UNL1        0.0846
      5 C         142.2572  144.3110  164.3729 C.ar    1  UNL1        0.0174
      6 C         141.6759  144.5406  163.0093 C.ar    1  UNL1       -0.0031
      7 C         142.3585  143.9768  161.7984 C.ar    1  UNL1       -0.0218
      8 C         143.6222  143.1835  161.9511 C.ar    1  UNL1        0.0091
      9 C         144.4560  142.5380  160.8842 C.3     1  UNL1        0.0292
     10 C         144.2318  142.5265  159.4010 C.3     1  UNL1        0.0062
     11 C         143.1186  143.1575  158.6186 C.3     1  UNL1        0.0166
     12 C         141.9545  143.9561  159.1259 C.3     1  UNL1        0.0619
     13 C         141.6162  144.3207  160.5410 C.3     1  UNL1        0.0421
     14 N         141.0029  144.4560  158.0798 N.3     1  UNL1       -0.2713
     15 C         141.0086  145.9050  157.6917 C.3     1  UNL1        0.0896
     16 C         140.0569  146.4049  156.6455 C.3     1  UNL1        0.0897
     17 N         139.0995  145.4560  155.9874 N.3     1  UNL1       -0.2691
     18 C         138.1480  145.9560  154.9413 C.3     1  UNL1        0.0897
     19 C         139.0938  144.0071  156.3756 C.3     1  UNL1        0.0897
     20 C         140.0455  143.5071  157.4218 C.3     1  UNL1        0.0896
     21 C         145.4066  140.7344  163.9282 C.3     1  UNL1        0.2525
     22 O         145.4674  142.1605  163.4674 O.3     1  UNL1       -0.4705
     23 C         143.3845  142.4116  166.8725 C.ar    1  UNL1        0.2219
     24 N         143.6230  142.5830  168.3435 N.ar    1  UNL1       -0.2110
     25 C         142.9054  141.7066  169.3267 C.ar    1  UNL1        0.1160
     26 C         141.9492  140.6587  168.8390 C.ar    1  UNL1        0.1082
     27 CL        141.2315  139.7822  169.8223 Cl      1  UNL1       -0.0777
     28 C         141.7107  140.4873  167.3680 C.ar    1  UNL1        0.1435
     29 N         142.4284  141.3638  166.3848 N.ar    1  UNL1       -0.1979
     30 N         140.7546  139.4395  166.8802 N.pl3   1  UNL1       -0.3181
     31 H         140.6042  138.6246  167.4118 H       1  UNL1        0.1482
     32 C         140.0276  139.6333  165.5827 C.3     1  UNL1        0.0832
     33 C         140.3928  139.0137  164.2663 C.3     1  UNL1        0.0984
     34 C         139.3986  139.4781  163.2436 C.3     1  UNL1        0.0323
     35 C         138.1787  140.3255  163.0345 C.2     1  UNL1       -0.0304
     36 C         137.8134  140.9450  164.3509 C.2     1  UNL1       -0.0294
     37 C         138.8076  140.4806  165.3736 C.3     1  UNL1        0.0404
     38 C         139.7874  139.5740  164.6892 C.3     1  UNL1        0.0109
     39 C         141.5493  138.0916  164.0165 C.2     1  UNL1        0.2208
     40 N         141.4258  136.9907  163.0051 N.am    1  UNL1       -0.3288
     41 O         142.8292  138.2704  164.7780 O.2     1  UNL1       -0.2753
     42 H         140.5857  136.8734  162.5053 H       1  UNL1        0.1449
     43 H         142.1848  136.3855  162.8411 H       1  UNL1        0.1449
@<TRIPOS>BOND
     1    21    22    1
     2    22     3    1
     3     3     4   ar
     4     4     1    1
     5     1    23    1
     6    23    24   ar
     7    24    25   ar
     8    25    26   ar
     9    26    27    1
    10    26    28   ar
    11    28    30    1
    12    32    30    1
    13    32    33    1
    14    33    39    1
    15    39    40   am
    16    39    41    2
    17    33    34    1
    18    34    35    1
    19    35    36    2
    20    37    36    1
    21    37    38    1
    22    28    29   ar
    23     4     5   ar
    24     5     6   ar
    25     6     7   ar
    26     7     8   ar
    27     8     9    1
    28     9    10    1
    29    10    11    1
    30    11    12    1
    31    12    14    1
    32    14    15    1
    33    15    16    1
    34    16    17    1
    35    17    18    1
    36    17    19    1
    37    19    20    1
    38    12    13    1
    39     8     3   ar
    40    20    14    1
    41    29    23   ar
    42    13     7    1
    43    37    32    1
    44    38    34    1
    45     1     2    1
    46    30    31    1
    47    40    42    1
    48    40    43    1
@<TRIPOS>MOLECULE
*****
 43 48 0 0 0
SMALL
GASTEIGER

@<TRIPOS>ATOM
      1 N         139.6688  145.8017  160.1371 N.pl3   1  UNL1       -0.2801
      2 H         139.0005  146.5184  160.0422 H       1  UNL1        0.1552
      3 C         139.0440  143.8284  161.7074 C.ar    1  UNL1        0.1477
      4 C         139.8197  145.0855  161.4464 C.ar    1  UNL1        0.0846
      5 C         140.7464  145.6263  162.4946 C.ar    1  UNL1        0.0174
      6 C         140.8973  144.9101  163.8039 C.ar    1  UNL1       -0.0031
      7 C         140.1216  143.6530  164.0649 C.ar    1  UNL1       -0.0218
      8 C         139.1950  143.1123  163.0167 C.ar    1  UNL1        0.0091
      9 C         138.3352  141.8843  163.0719 C.3     1  UNL1        0.0292
     10 C         138.1898  140.8939  164.1892 C.3     1  UNL1        0.0062
     11 C         138.8681  140.8869  165.5269 C.3     1  UNL1        0.0166
     12 C         139.8595  141.8684  166.0780 C.3     1  UNL1        0.0619
     13 C         140.4174  143.0995  165.4274 C.3     1  UNL1        0.0421
     14 N         140.3591  141.5810  167.4628 N.3     1  UNL1       -0.2713
     15 C         141.2415  142.5718  168.1626 C.3     1  UNL1        0.0896
     16 C         141.7411  142.2843  169.5474 C.3     1  UNL1        0.0897
     17 N         141.3584  141.0059  170.2325 N.3     1  UNL1       -0.2691
     18 C         141.8580  140.7184  171.6173 C.3     1  UNL1        0.0897
     19 C         140.4760  140.0151  169.5327 C.3     1  UNL1        0.0897
     20 C         139.9764  140.3026  168.1478 C.3     1  UNL1        0.0896
     21 C         138.6496  142.4003  159.5733 C.3     1  UNL1        0.2525
     22 O         138.1173  143.2876  160.6592 O.3     1  UNL1       -0.4705
     23 C         140.5361  145.4260  158.9724 C.ar    1  UNL1        0.2219
     24 N         140.1755  145.8837  157.5901 N.ar    1  UNL1       -0.2110
     25 C         141.0428  145.5080  156.4255 C.ar    1  UNL1        0.1160
     26 C         142.2709  144.6746  156.6430 C.ar    1  UNL1        0.1082
     27 CL        143.1382  144.2989  155.4782 Cl      1  UNL1       -0.0777
     28 C         142.6316  144.2169  158.0252 C.ar    1  UNL1        0.1435
     29 N         141.7642  144.5926  159.1899 N.ar    1  UNL1       -0.1979
     30 N         143.8596  143.3835  158.2427 N.pl3   1  UNL1       -0.3181
     31 H         144.7431  143.7316  157.9829 H       1  UNL1        0.1482
     32 C         143.7416  142.0197  158.8559 C.3     1  UNL1        0.0832
     33 C         144.0162  141.6705  160.2886 C.3     1  UNL1        0.0984
     34 C         143.7726  140.2006  160.4624 C.3     1  UNL1        0.0323
     35 C         143.3593  138.9466  159.7506 C.2     1  UNL1       -0.0304
     36 C         143.0848  139.2959  158.3179 C.2     1  UNL1       -0.0294
     37 C         143.3284  140.7657  158.1442 C.3     1  UNL1        0.0404
     38 C         143.7535  141.3249  159.4696 C.3     1  UNL1        0.0109
     39 C         144.4569  142.6238  161.3597 C.2     1  UNL1        0.2208
     40 N         145.6363  142.2880  162.2236 N.am    1  UNL1       -0.3288
     41 O         143.7183  143.9128  161.5668 O.2     1  UNL1       -0.2753
     42 H         146.1211  141.4420  162.0877 H       1  UNL1        0.1449
     43 H         145.9256  142.9136  162.9265 H       1  UNL1        0.1449
@<TRIPOS>BOND
     1    21    22    1
     2    22     3    1
     3     3     4   ar
     4     4     1    1
     5     1    23    1
     6    23    24   ar
     7    24    25   ar
     8    25    26   ar
     9    26    27    1
    10    26    28   ar
    11    28    30    1
    12    32    30    1
    13    32    33    1
    14    33    39    1
    15    39    40   am
    16    39    41    2
    17    33    34    1
    18    34    35    1
    19    35    36    2
    20    37    36    1
    21    37    38    1
    22    28    29   ar
    23     4     5   ar
    24     5     6   ar
    25     6     7   ar
    26     7     8   ar
    27     8     9    1
    28     9    10    1
    29    10    11    1
    30    11    12    1
    31    12    14    1
    32    14    15    1
    33    15    16    1
    34    16    17    1
    35    17    18    1
    36    17    19    1
    37    19    20    1
    38    12    13    1
    39     8     3   ar
    40    20    14    1
    41    29    23   ar
    42    13     7    1
    43    37    32    1
    44    38    34    1
    45     1     2    1
    46    30    31    1
    47    40    42    1
    48    40    43    1
@<TRIPOS>MOLECULE
*****
 43 48 0 0 0
SMALL
GASTEIGER

@<TRIPOS>ATOM
      1 N         142.8128  138.8845  166.6945 N.pl3   1  UNL1       -0.2801
      2 H         143.3377  138.2369  167.2183 H       1  UNL1        0.1552
      3 C         143.4283  139.4695  164.2391 C.ar    1  UNL1        0.1477
      4 C         142.6188  138.6763  165.2218 C.ar    1  UNL1        0.0846
      5 C         141.6153  137.6749  164.7317 C.ar    1  UNL1        0.0174
      6 C         141.4212  137.4667  163.2589 C.ar    1  UNL1       -0.0031
      7 C         142.2307  138.2600  162.2763 C.ar    1  UNL1       -0.0218
      8 C         143.2342  139.2613  162.7664 C.ar    1  UNL1        0.0091
      9 C         144.1377  140.1498  161.9636 C.3     1  UNL1        0.0292
     10 C         144.2608  140.2562  160.4724 C.3     1  UNL1        0.0062
     11 C         143.5108  139.5006  159.4159 C.3     1  UNL1        0.0166
     12 C         142.4525  138.4518  159.5893 C.3     1  UNL1        0.0619
     13 C         141.8828  137.8997  160.8623 C.3     1  UNL1        0.0421
     14 N         141.8895  137.8795  158.3223 N.3     1  UNL1       -0.2713
     15 C         142.7344  136.9870  157.4621 C.3     1  UNL1        0.0896
     16 C         142.1713  136.4147  156.1950 C.3     1  UNL1        0.0897
     17 N         140.7634  136.7348  155.7881 N.3     1  UNL1       -0.2691
     18 C         140.2004  136.1625  154.5211 C.3     1  UNL1        0.0897
     19 C         139.9186  137.6272  156.6483 C.3     1  UNL1        0.0897
     20 C         140.4817  138.1995  157.9154 C.3     1  UNL1        0.0896
     21 C         144.0771  141.9276  164.7743 C.3     1  UNL1        0.2525
     22 O         144.4318  140.4709  164.7292 O.3     1  UNL1       -0.4705
     23 C         142.2070  140.0794  167.3693 C.ar    1  UNL1        0.2219
     24 N         142.3981  140.2859  168.8427 N.ar    1  UNL1       -0.2110
     25 C         141.7924  141.4807  169.5174 C.ar    1  UNL1        0.1160
     26 C         140.9954  142.4692  168.7187 C.ar    1  UNL1        0.1082
     27 CL        140.3897  143.6641  169.3934 Cl      1  UNL1       -0.0777
     28 C         140.8043  142.2628  167.2453 C.ar    1  UNL1        0.1435
     29 N         141.4100  141.0679  166.5706 N.ar    1  UNL1       -0.1979
     30 N         140.0074  143.2512  166.4466 N.pl3   1  UNL1       -0.3181
     31 H         139.2806  143.7585  166.8751 H       1  UNL1        0.1482
     32 C         140.3177  143.4667  164.9950 C.3     1  UNL1        0.0832
     33 C         139.7159  142.7165  163.8439 C.3     1  UNL1        0.0984
     34 C         140.3107  143.2563  162.5771 C.3     1  UNL1        0.0323
     35 C         141.2773  144.2599  162.0217 C.2     1  UNL1       -0.0304
     36 C         141.8791  145.0101  163.1728 C.2     1  UNL1       -0.0294
     37 C         141.2844  144.4702  164.4396 C.3     1  UNL1        0.0404
     38 C         140.3150  143.3863  164.0714 C.3     1  UNL1        0.0109
     39 C         138.6981  141.6190  163.9423 C.2     1  UNL1        0.2208
     40 N         139.0992  140.2679  164.4559 N.am    1  UNL1       -0.3288
     41 O         137.2792  141.8727  163.5272 O.2     1  UNL1       -0.2753
     42 H         140.0304  140.1015  164.7284 H       1  UNL1        0.1449
     43 H         138.4311  139.5477  164.5205 H       1  UNL1        0.1449
@<TRIPOS>BOND
     1    21    22    1
     2    22     3    1
     3     3     4   ar
     4     4     1    1
     5     1    23    1
     6    23    24   ar
     7    24    25   ar
     8    25    26   ar
     9    26    27    1
    10    26    28   ar
    11    28    30    1
    12    32    30    1
    13    32    33    1
    14    33    39    1
    15    39    40   am
    16    39    41    2
    17    33    34    1
    18    34    35    1
    19    35    36    2
    20    37    36    1
    21    37    38    1
    22    28    29   ar
    23     4     5   ar
    24     5     6   ar
    25     6     7   ar
    26     7     8   ar
    27     8     9    1
    28     9    10    1
    29    10    11    1
    30    11    12    1
    31    12    14    1
    32    14    15    1
    33    15    16    1
    34    16    17    1
    35    17    18    1
    36    17    19    1
    37    19    20    1
    38    12    13    1
    39     8     3   ar
    40    20    14    1
    41    29    23   ar
    42    13     7    1
    43    37    32    1
    44    38    34    1
    45     1     2    1
    46    30    31    1
    47    40    42    1
    48    40    43    1
@<TRIPOS>MOLECULE
*****
 43 48 0 0 0
SMALL
GASTEIGER

@<TRIPOS>ATOM
      1 N         140.4640  143.3953  159.2528 N.pl3   1  UNL1       -0.2801
      2 H         140.6916  144.1822  158.7066 H       1  UNL1        0.1552
      3 C         139.8490  141.3212  157.8140 C.ar    1  UNL1        0.1477
      4 C         140.7870  142.0178  158.7547 C.ar    1  UNL1        0.0846
      5 C         142.0481  141.3369  159.1974 C.ar    1  UNL1        0.0174
      6 C         142.3712  139.9593  158.6993 C.ar    1  UNL1       -0.0031
      7 C         141.4331  139.2627  157.7586 C.ar    1  UNL1       -0.0218
      8 C         140.1721  139.9437  157.3160 C.ar    1  UNL1        0.0091
      9 C         139.1082  139.4320  156.3905 C.3     1  UNL1        0.0292
     10 C         139.0427  138.1130  155.6791 C.3     1  UNL1        0.0062
     11 C         140.0249  136.9800  155.7176 C.3     1  UNL1        0.0166
     12 C         141.3152  136.8860  156.4768 C.3     1  UNL1        0.0619
     13 C         141.9419  137.9019  157.3852 C.3     1  UNL1        0.0421
     14 N         142.0797  135.6071  156.3050 N.3     1  UNL1       -0.2713
     15 C         143.1529  135.2372  157.2857 C.3     1  UNL1        0.0896
     16 C         143.9175  133.9582  157.1138 C.3     1  UNL1        0.0897
     17 N         143.6090  133.0490  155.9613 N.3     1  UNL1       -0.2691
     18 C         144.3736  131.7700  155.7895 C.3     1  UNL1        0.0897
     19 C         142.5358  133.4188  154.9807 C.3     1  UNL1        0.0897
     20 C         141.7712  134.6979  155.1525 C.3     1  UNL1        0.0896
     21 C         138.6360  143.0402  156.2897 C.3     1  UNL1        0.2525
     22 O         138.5879  142.0021  157.3713 O.3     1  UNL1       -0.4705
     23 C         139.7941  143.5739  160.5829 C.ar    1  UNL1        0.2219
     24 N         140.0353  144.8196  161.3831 N.ar    1  UNL1       -0.2110
     25 C         139.3655  144.9981  162.7132 C.ar    1  UNL1        0.1160
     26 C         138.4543  143.9310  163.2433 C.ar    1  UNL1        0.1082
     27 CL        137.7844  144.1096  164.5735 Cl      1  UNL1       -0.0777
     28 C         138.2130  142.6853  162.4433 C.ar    1  UNL1        0.1435
     29 N         138.8829  142.5067  161.1131 N.ar    1  UNL1       -0.1979
     30 N         137.3018  141.6181  162.9733 N.pl3   1  UNL1       -0.3181
     31 H         136.3272  141.7573  162.9712 H       1  UNL1        0.1482
     32 C         137.8755  140.3390  163.5066 C.3     1  UNL1        0.0832
     33 C         138.2360  139.1291  162.6966 C.3     1  UNL1        0.0984
     34 C         138.7728  138.0874  163.6330 C.3     1  UNL1        0.0323
     35 C         139.0867  137.7935  165.0700 C.2     1  UNL1       -0.0304
     36 C         138.7263  139.0034  165.8800 C.2     1  UNL1       -0.0294
     37 C         138.1895  140.0451  164.9437 C.3     1  UNL1        0.0404
     38 C         138.2182  139.4789  163.5549 C.3     1  UNL1        0.0109
     39 C         138.0860  138.9859  161.2110 C.2     1  UNL1        0.2208
     40 N         136.7700  139.2874  160.5575 N.am    1  UNL1       -0.3288
     41 O         139.2522  138.5412  160.3789 O.2     1  UNL1       -0.2753
     42 H         136.0046  139.5793  161.1036 H       1  UNL1        0.1449
     43 H         136.6715  139.1935  159.5824 H       1  UNL1        0.1449
@<TRIPOS>BOND
     1    21    22    1
     2    22     3    1
     3     3     4   ar
     4     4     1    1
     5     1    23    1
     6    23    24   ar
     7    24    25   ar
     8    25    26   ar
     9    26    27    1
    10    26    28   ar
    11    28    30    1
    12    32    30    1
    13    32    33    1
    14    33    39    1
    15    39    40   am
    16    39    41    2
    17    33    34    1
    18    34    35    1
    19    35    36    2
    20    37    36    1
    21    37    38    1
    22    28    29   ar
    23     4     5   ar
    24     5     6   ar
    25     6     7   ar
    26     7     8   ar
    27     8     9    1
    28     9    10    1
    29    10    11    1
    30    11    12    1
    31    12    14    1
    32    14    15    1
    33    15    16    1
    34    16    17    1
    35    17    18    1
    36    17    19    1
    37    19    20    1
    38    12    13    1
    39     8     3   ar
    40    20    14    1
    41    29    23   ar
    42    13     7    1
    43    37    32    1
    44    38    34    1
    45     1     2    1
    46    30    31    1
    47    40    42    1
    48    40    43    1
