@<TRIPOS>MOLECULE
*****
 39 43 0 0 0
SMALL
GASTEIGER

@<TRIPOS>ATOM
      1 N         141.9525  139.2206  160.2941 N.ar    1  UNL1       -0.2986
      2 C         141.9497  139.7993  158.9103 C.ar    1  UNL1        0.1245
      3 C         140.7447  140.6828  158.7797 C.ar    1  UNL1        0.1157
      4 C         140.0026  140.6502  160.0828 C.ar    1  UNL1        0.0967
      5 C         140.7491  139.7465  161.0188 C.ar    1  UNL1        0.1354
      6 C         140.2365  139.5193  162.4102 C.ar    1  UNL1        0.2819
      7 O         140.9830  138.6156  163.3461 O.2     1  UNL1       -0.2652
      8 N         138.9775  140.1957  162.8654 N.ar    1  UNL1       -0.2417
      9 C         138.2310  141.0994  161.9294 C.ar    1  UNL1        0.3342
     10 O         136.9720  141.7758  162.3847 O.2     1  UNL1       -0.2462
     11 N         138.7435  141.3267  160.5382 N.ar    1  UNL1       -0.2770
     12 C         137.9970  142.2304  159.6022 C.3     1  UNL1        0.1351
     13 N         142.9725  139.5400  157.8442 N.pl3   1  UNL1       -0.2925
     14 C         142.7660  138.2952  157.0330 C.3     1  UNL1        0.0936
     15 C         143.6025  137.7628  155.9076 C.3     1  UNL1        0.0385
     16 C         144.8522  138.3436  155.3152 C.3     1  UNL1        0.0704
     17 N         145.5741  139.6003  155.7020 N.3     1  UNL1       -0.2960
     18 C         145.2244  140.5865  156.7768 C.3     1  UNL1        0.0903
     19 C         144.0668  140.5598  157.7301 C.3     1  UNL1        0.1092
     20 H         145.6000  140.1539  154.8458 H       1  UNL1        0.1233
     21 C         140.3507  141.4622  157.5601 C.1     1  UNL1        0.1047
     22 N         139.9568  142.2415  156.3404 N.1     1  UNL1       -0.1907
     23 C         142.9785  138.2810  160.8548 C.3     1  UNL1        0.1842
     24 C         145.2948  139.4185  164.5414 C.3     1  UNL1        0.0900
     25 C         144.5227  139.0394  163.3125 C.1     1  UNL1       -0.0881
     26 C         143.7506  138.6602  162.0837 C.1     1  UNL1       -0.0656
     27 C         138.4650  139.9684  164.2567 C.3     1  UNL1        0.1600
     28 C         139.1582  140.6052  165.4247 C.ar    1  UNL1        0.0916
     29 N         140.0427  141.7980  165.2127 N.ar    1  UNL1       -0.2455
     30 C         140.7358  142.4347  166.3806 C.ar    1  UNL1        0.0985
     31 C         140.5444  141.8788  167.7606 C.ar    1  UNL1        0.0198
     32 C         141.2375  142.5156  168.9285 C.ar    1  UNL1        0.0016
     33 C         141.0461  141.9596  170.3084 C.ar    1  UNL1        0.0000
     34 C         140.1616  140.7669  170.5204 C.ar    1  UNL1        0.0000
     35 C         139.4685  140.1301  169.3525 C.ar    1  UNL1        0.0008
     36 C         139.6599  140.6860  167.9726 C.ar    1  UNL1        0.0123
     37 C         138.9668  140.0492  166.8046 C.ar    1  UNL1        0.0839
     38 C         138.0822  138.8565  167.0166 C.1     1  UNL1        0.1017
     39 N         137.1977  137.6637  167.2286 N.1     1  UNL1       -0.1908
@<TRIPOS>BOND
     1    24    25    1
     2    25    26    3
     3    26    23    1
     4    23     1    1
     5     1     2   ar
     6     2    13    1
     7    13    14    1
     8    14    15    1
     9    15    16    1
    10    16    17    1
    11    17    18    1
    12    18    19    1
    13     2     3   ar
    14     3    21    1
    15    21    22    3
    16     3     4   ar
    17     4     5   ar
    18     5     6   ar
    19     6     7    2
    20     6     8   ar
    21     8    27    1
    22    27    28    1
    23    28    29   ar
    24    29    30   ar
    25    30    31   ar
    26    31    32   ar
    27    32    33   ar
    28    33    34   ar
    29    34    35   ar
    30    35    36   ar
    31    36    37   ar
    32    37    38    1
    33    38    39    3
    34     8     9   ar
    35     9    10    2
    36     9    11   ar
    37    11    12    1
    38     5     1   ar
    39    37    28   ar
    40    19    13    1
    41    11     4   ar
    42    36    31   ar
    43    17    20    1
@<TRIPOS>MOLECULE
*****
 39 43 0 0 0
SMALL
GASTEIGER

@<TRIPOS>ATOM
      1 N         143.7055  142.7486  159.9720 N.ar    1  UNL1       -0.2986
      2 C         143.7309  142.9428  158.4849 C.ar    1  UNL1        0.1245
      3 C         142.6434  143.9111  158.1252 C.ar    1  UNL1        0.1157
      4 C         141.9457  144.3154  159.3900 C.ar    1  UNL1        0.0967
      5 C         142.6022  143.5969  160.5314 C.ar    1  UNL1        0.1354
      6 C         142.1103  143.8079  161.9328 C.ar    1  UNL1        0.2819
      7 O         142.7668  143.0894  163.0742 O.2     1  UNL1       -0.2652
      8 N         140.9621  144.7374  162.1926 N.ar    1  UNL1       -0.2417
      9 C         140.3057  145.4559  161.0512 C.ar    1  UNL1        0.3342
     10 O         139.1575  146.3855  161.3111 O.2     1  UNL1       -0.2462
     11 N         140.7974  145.2449  159.6499 N.ar    1  UNL1       -0.2770
     12 C         140.1410  145.9634  158.5085 C.3     1  UNL1        0.1351
     13 N         144.6778  142.2843  157.5258 N.pl3   1  UNL1       -0.2925
     14 C         144.0990  141.1754  156.6978 C.3     1  UNL1        0.0936
     15 C         144.7777  140.3302  155.6611 C.3     1  UNL1        0.0385
     16 C         146.2028  140.3850  155.1962 C.3     1  UNL1        0.0704
     17 N         147.3012  141.2985  155.6533 N.3     1  UNL1       -0.2960
     18 C         147.2457  142.3830  156.6882 C.3     1  UNL1        0.0903
     19 C         146.0783  142.8217  157.5215 C.3     1  UNL1        0.1092
     20 H         147.6104  141.7714  154.8041 H       1  UNL1        0.1233
     21 C         142.3116  144.3910  156.7433 C.1     1  UNL1        0.1047
     22 N         141.9799  144.8708  155.3613 N.1     1  UNL1       -0.1907
     23 C         144.6224  141.8617  160.7612 C.3     1  UNL1        0.1842
     24 C         143.0827  138.0034  162.4909 C.3     1  UNL1        0.0900
     25 C         143.5960  139.2895  161.9143 C.1     1  UNL1       -0.0881
     26 C         144.1092  140.5756  161.3377 C.1     1  UNL1       -0.0656
     27 C         140.4704  144.9485  163.5939 C.3     1  UNL1        0.1600
     28 C         140.2858  143.7741  164.5088 C.ar    1  UNL1        0.0916
     29 N         141.0878  143.6746  165.7725 N.ar    1  UNL1       -0.2455
     30 C         140.9032  142.5004  166.6874 C.ar    1  UNL1        0.0985
     31 C         139.9166  141.4256  166.3386 C.ar    1  UNL1        0.0198
     32 C         139.7321  140.2514  167.2535 C.ar    1  UNL1        0.0016
     33 C         138.7456  139.1767  166.9047 C.ar    1  UNL1        0.0000
     34 C         137.9436  139.2762  165.6410 C.ar    1  UNL1        0.0000
     35 C         138.1282  140.4504  164.7261 C.ar    1  UNL1        0.0008
     36 C         139.1147  141.5251  165.0749 C.ar    1  UNL1        0.0123
     37 C         139.2993  142.6994  164.1600 C.ar    1  UNL1        0.0839
     38 C         138.4973  142.7989  162.8963 C.1     1  UNL1        0.1017
     39 N         137.6954  142.8984  161.6326 N.1     1  UNL1       -0.1908
@<TRIPOS>BOND
     1    24    25    1
     2    25    26    3
     3    26    23    1
     4    23     1    1
     5     1     2   ar
     6     2    13    1
     7    13    14    1
     8    14    15    1
     9    15    16    1
    10    16    17    1
    11    17    18    1
    12    18    19    1
    13     2     3   ar
    14     3    21    1
    15    21    22    3
    16     3     4   ar
    17     4     5   ar
    18     5     6   ar
    19     6     7    2
    20     6     8   ar
    21     8    27    1
    22    27    28    1
    23    28    29   ar
    24    29    30   ar
    25    30    31   ar
    26    31    32   ar
    27    32    33   ar
    28    33    34   ar
    29    34    35   ar
    30    35    36   ar
    31    36    37   ar
    32    37    38    1
    33    38    39    3
    34     8     9   ar
    35     9    10    2
    36     9    11   ar
    37    11    12    1
    38     5     1   ar
    39    37    28   ar
    40    19    13    1
    41    11     4   ar
    42    36    31   ar
    43    17    20    1
@<TRIPOS>MOLECULE
*****
 39 43 0 0 0
SMALL
GASTEIGER

@<TRIPOS>ATOM
      1 N         142.1084  141.4318  165.1292 N.ar    1  UNL1       -0.2986
      2 C         140.9969  142.1299  165.8552 C.ar    1  UNL1        0.1245
      3 C         140.5230  143.2646  164.9964 C.ar    1  UNL1        0.1157
      4 C         141.3416  143.2679  163.7395 C.ar    1  UNL1        0.0967
      5 C         142.3214  142.1352  163.8215 C.ar    1  UNL1        0.1354
      6 C         143.2811  141.8905  162.6948 C.ar    1  UNL1        0.2819
      7 O         144.2609  140.7578  162.7769 O.2     1  UNL1       -0.2652
      8 N         143.2608  142.7786  161.4862 N.ar    1  UNL1       -0.2417
      9 C         142.2809  143.9114  161.4042 C.ar    1  UNL1        0.3342
     10 O         142.2607  144.7995  160.1955 O.2     1  UNL1       -0.2462
     11 N         141.3213  144.1560  162.5307 N.ar    1  UNL1       -0.2770
     12 C         140.3415  145.2888  162.4487 C.3     1  UNL1        0.1351
     13 N         140.4546  141.7584  167.2035 N.pl3   1  UNL1       -0.2925
     14 C         139.5944  140.5301  167.2432 C.3     1  UNL1        0.0936
     15 C         138.9114  139.9045  168.4229 C.3     1  UNL1        0.0385
     16 C         138.9197  140.3524  169.8545 C.3     1  UNL1        0.0704
     17 N         139.6132  141.5368  170.4598 N.3     1  UNL1       -0.2960
     18 C         140.4696  142.5656  169.7830 C.3     1  UNL1        0.0903
     19 C         140.8441  142.6643  168.3339 C.3     1  UNL1        0.1092
     20 H         140.2138  141.1395  171.1822 H       1  UNL1        0.1233
     21 C         139.4235  144.2272  165.3350 C.1     1  UNL1        0.1047
     22 N         138.3240  145.1897  165.6736 N.1     1  UNL1       -0.1907
     23 C         142.8727  140.2397  165.6238 C.3     1  UNL1        0.1842
     24 C         142.5624  138.9999  169.9384 C.3     1  UNL1        0.0900
     25 C         142.6659  139.4132  168.5002 C.1     1  UNL1       -0.0881
     26 C         142.7693  139.8265  167.0620 C.1     1  UNL1       -0.0656
     27 C         144.2204  142.5340  160.3596 C.3     1  UNL1        0.1600
     28 C         143.8777  141.5467  159.2835 C.ar    1  UNL1        0.0916
     29 N         142.6782  140.6589  159.4346 N.ar    1  UNL1       -0.2455
     30 C         142.3354  139.6717  158.3585 C.ar    1  UNL1        0.0985
     31 C         143.1922  139.5724  157.1312 C.ar    1  UNL1        0.0198
     32 C         142.8494  138.5852  156.0552 C.ar    1  UNL1        0.0016
     33 C         143.7062  138.4859  154.8280 C.ar    1  UNL1        0.0000
     34 C         144.9057  139.3738  154.6769 C.ar    1  UNL1        0.0000
     35 C         145.2485  140.3609  155.7529 C.ar    1  UNL1        0.0008
     36 C         144.3917  140.4602  156.9801 C.ar    1  UNL1        0.0123
     37 C         144.7344  141.4474  158.0563 C.ar    1  UNL1        0.0839
     38 C         145.9340  142.3353  157.9051 C.1     1  UNL1        0.1017
     39 N         147.1335  143.2232  157.7540 N.1     1  UNL1       -0.1908
@<TRIPOS>BOND
     1    24    25    1
     2    25    26    3
     3    26    23    1
     4    23     1    1
     5     1     2   ar
     6     2    13    1
     7    13    14    1
     8    14    15    1
     9    15    16    1
    10    16    17    1
    11    17    18    1
    12    18    19    1
    13     2     3   ar
    14     3    21    1
    15    21    22    3
    16     3     4   ar
    17     4     5   ar
    18     5     6   ar
    19     6     7    2
    20     6     8   ar
    21     8    27    1
    22    27    28    1
    23    28    29   ar
    24    29    30   ar
    25    30    31   ar
    26    31    32   ar
    27    32    33   ar
    28    33    34   ar
    29    34    35   ar
    30    35    36   ar
    31    36    37   ar
    32    37    38    1
    33    38    39    3
    34     8     9   ar
    35     9    10    2
    36     9    11   ar
    37    11    12    1
    38     5     1   ar
    39    37    28   ar
    40    19    13    1
    41    11     4   ar
    42    36    31   ar
    43    17    20    1
@<TRIPOS>MOLECULE
*****
 39 43 0 0 0
SMALL
GASTEIGER

@<TRIPOS>ATOM
      1 N         141.0286  140.7532  165.3931 N.ar    1  UNL1       -0.2986
      2 C         142.0303  141.4594  166.2578 C.ar    1  UNL1        0.1245
      3 C         142.9274  142.2645  165.3651 C.ar    1  UNL1        0.1157
      4 C         142.4801  142.0558  163.9486 C.ar    1  UNL1        0.0967
      5 C         141.3065  141.1218  163.9659 C.ar    1  UNL1        0.1354
      6 C         140.6426  140.7276  162.6799 C.ar    1  UNL1        0.2819
      7 O         139.4691  139.7935  162.6972 O.2     1  UNL1       -0.2652
      8 N         141.1523  141.2674  161.3765 N.ar    1  UNL1       -0.2417
      9 C         142.3259  142.2015  161.3592 C.ar    1  UNL1        0.3342
     10 O         142.8355  142.7413  160.0558 O.2     1  UNL1       -0.2462
     11 N         142.9897  142.5957  162.6451 N.ar    1  UNL1       -0.2770
     12 C         144.1633  143.5298  162.6278 C.3     1  UNL1        0.1351
     13 N         142.1193  141.3753  167.7527 N.pl3   1  UNL1       -0.2925
     14 C         141.6522  142.5881  168.5019 C.3     1  UNL1        0.0936
     15 C         141.6142  142.8146  169.9841 C.3     1  UNL1        0.0385
     16 C         142.0337  141.8844  171.0835 C.3     1  UNL1        0.0704
     17 N         142.5950  140.4979  170.9721 N.3     1  UNL1       -0.2960
     18 C         142.8754  139.6992  169.7337 C.3     1  UNL1        0.0903
     19 C         142.6637  140.0896  168.3011 C.3     1  UNL1        0.1092
     20 H         141.9514  139.9177  171.5101 H       1  UNL1        0.1233
     21 C         144.0710  143.1269  165.8105 C.1     1  UNL1        0.1047
     22 N         145.2146  143.9893  166.2559 N.1     1  UNL1       -0.1907
     23 C         139.9400  139.8388  165.8716 C.3     1  UNL1        0.1842
     24 C         138.4681  140.1204  170.1147 C.3     1  UNL1        0.0900
     25 C         138.9587  140.0265  168.7003 C.1     1  UNL1       -0.0881
     26 C         139.4493  139.9327  167.2860 C.1     1  UNL1       -0.0656
     27 C         140.4884  140.8732  160.0905 C.3     1  UNL1        0.1600
     28 C         141.0157  139.7131  159.2991 C.ar    1  UNL1        0.0916
     29 N         142.3271  139.0864  159.6699 N.ar    1  UNL1       -0.2455
     30 C         142.8543  137.9264  158.8786 C.ar    1  UNL1        0.0985
     31 C         142.0702  137.3929  157.7164 C.ar    1  UNL1        0.0198
     32 C         142.5975  136.2329  156.9251 C.ar    1  UNL1        0.0016
     33 C         141.8134  135.6996  155.7629 C.ar    1  UNL1        0.0000
     34 C         140.5020  136.3262  155.3921 C.ar    1  UNL1        0.0000
     35 C         139.9747  137.4863  156.1834 C.ar    1  UNL1        0.0008
     36 C         140.7588  138.0196  157.3456 C.ar    1  UNL1        0.0123
     37 C         140.2316  139.1797  158.1370 C.ar    1  UNL1        0.0839
     38 C         138.9202  139.8064  157.7662 C.1     1  UNL1        0.1017
     39 N         137.6088  140.4331  157.3953 N.1     1  UNL1       -0.1908
@<TRIPOS>BOND
     1    24    25    1
     2    25    26    3
     3    26    23    1
     4    23     1    1
     5     1     2   ar
     6     2    13    1
     7    13    14    1
     8    14    15    1
     9    15    16    1
    10    16    17    1
    11    17    18    1
    12    18    19    1
    13     2     3   ar
    14     3    21    1
    15    21    22    3
    16     3     4   ar
    17     4     5   ar
    18     5     6   ar
    19     6     7    2
    20     6     8   ar
    21     8    27    1
    22    27    28    1
    23    28    29   ar
    24    29    30   ar
    25    30    31   ar
    26    31    32   ar
    27    32    33   ar
    28    33    34   ar
    29    34    35   ar
    30    35    36   ar
    31    36    37   ar
    32    37    38    1
    33    38    39    3
    34     8     9   ar
    35     9    10    2
    36     9    11   ar
    37    11    12    1
    38     5     1   ar
    39    37    28   ar
    40    19    13    1
    41    11     4   ar
    42    36    31   ar
    43    17    20    1
@<TRIPOS>MOLECULE
*****
 39 43 0 0 0
SMALL
GASTEIGER

@<TRIPOS>ATOM
      1 N         140.5365  139.1865  163.4609 N.ar    1  UNL1       -0.2986
      2 C         141.1496  140.2393  164.3358 C.ar    1  UNL1        0.1245
      3 C         141.6044  141.3659  163.4562 C.ar    1  UNL1        0.1157
      4 C         141.2723  141.0095  162.0376 C.ar    1  UNL1        0.0967
      5 C         140.6123  139.6625  162.0404 C.ar    1  UNL1        0.1354
      6 C         140.1656  139.0434  160.7491 C.ar    1  UNL1        0.2819
      7 O         139.5056  137.6965  160.7520 O.2     1  UNL1       -0.2652
      8 N         140.3790  139.7714  159.4551 N.ar    1  UNL1       -0.2417
      9 C         141.0390  141.1183  159.4522 C.ar    1  UNL1        0.3342
     10 O         141.2524  141.8462  158.1582 O.2     1  UNL1       -0.2462
     11 N         141.4857  141.7374  160.7434 N.ar    1  UNL1       -0.2770
     12 C         142.1457  143.0844  160.7406 C.3     1  UNL1        0.1351
     13 N         141.2843  140.1765  165.8284 N.pl3   1  UNL1       -0.2925
     14 C         140.2266  140.8996  166.6085 C.3     1  UNL1        0.0936
     15 C         140.0823  141.0236  168.0962 C.3     1  UNL1        0.0385
     16 C         140.9600  140.4552  169.1717 C.3     1  UNL1        0.0704
     17 N         142.1988  139.6224  169.0248 N.3     1  UNL1       -0.2960
     18 C         142.8659  139.1522  167.7662 C.3     1  UNL1        0.0903
     19 C         142.4589  139.3988  166.3438 C.3     1  UNL1        0.1092
     20 H         141.9939  138.7665  169.5405 H       1  UNL1        0.1233
     21 C         142.2737  142.6276  163.9147 C.1     1  UNL1        0.1047
     22 N         142.9431  143.8892  164.3732 N.1     1  UNL1       -0.1907
     23 C         139.9503  137.8860  163.9248 C.3     1  UNL1        0.1842
     24 C         137.1171  137.8147  167.4201 C.3     1  UNL1        0.0900
     25 C         138.0615  137.8385  166.2550 C.1     1  UNL1       -0.0881
     26 C         139.0060  137.8622  165.0899 C.1     1  UNL1       -0.0656
     27 C         139.9323  139.1523  158.1639 C.3     1  UNL1        0.1600
     28 C         140.7678  138.0902  157.5128 C.ar    1  UNL1        0.0916
     29 N         142.0999  137.7216  158.0956 N.ar    1  UNL1       -0.2455
     30 C         142.9354  136.6595  157.4446 C.ar    1  UNL1        0.0985
     31 C         142.4389  135.9660  156.2106 C.ar    1  UNL1        0.0198
     32 C         143.2744  134.9039  155.5596 C.ar    1  UNL1        0.0016
     33 C         142.7778  134.2105  154.3257 C.ar    1  UNL1        0.0000
     34 C         141.4457  134.5790  153.7429 C.ar    1  UNL1        0.0000
     35 C         140.6102  135.6411  154.3940 C.ar    1  UNL1        0.0008
     36 C         141.1068  136.3346  155.6278 C.ar    1  UNL1        0.0123
     37 C         140.2712  137.3967  156.2789 C.ar    1  UNL1        0.0839
     38 C         138.9391  137.7653  155.6961 C.1     1  UNL1        0.1017
     39 N         137.6071  138.1338  155.1133 N.1     1  UNL1       -0.1908
@<TRIPOS>BOND
     1    24    25    1
     2    25    26    3
     3    26    23    1
     4    23     1    1
     5     1     2   ar
     6     2    13    1
     7    13    14    1
     8    14    15    1
     9    15    16    1
    10    16    17    1
    11    17    18    1
    12    18    19    1
    13     2     3   ar
    14     3    21    1
    15    21    22    3
    16     3     4   ar
    17     4     5   ar
    18     5     6   ar
    19     6     7    2
    20     6     8   ar
    21     8    27    1
    22    27    28    1
    23    28    29   ar
    24    29    30   ar
    25    30    31   ar
    26    31    32   ar
    27    32    33   ar
    28    33    34   ar
    29    34    35   ar
    30    35    36   ar
    31    36    37   ar
    32    37    38    1
    33    38    39    3
    34     8     9   ar
    35     9    10    2
    36     9    11   ar
    37    11    12    1
    38     5     1   ar
    39    37    28   ar
    40    19    13    1
    41    11     4   ar
    42    36    31   ar
    43    17    20    1
@<TRIPOS>MOLECULE
*****
 39 43 0 0 0
SMALL
GASTEIGER

@<TRIPOS>ATOM
      1 N         142.5928  141.3652  165.4136 N.ar    1  UNL1       -0.2986
      2 C         141.6475  140.3531  165.9896 C.ar    1  UNL1        0.1245
      3 C         141.0279  139.5972  164.8517 C.ar    1  UNL1        0.1157
      4 C         141.5904  140.1423  163.5724 C.ar    1  UNL1        0.0967
      5 C         142.5576  141.2350  163.9197 C.ar    1  UNL1        0.1354
      6 C         143.2812  141.9702  162.8307 C.ar    1  UNL1        0.2819
      7 O         144.2483  143.0629  163.1780 O.2     1  UNL1       -0.2652
      8 N         143.0377  141.6126  161.3944 N.ar    1  UNL1       -0.2417
      9 C         142.0705  140.5199  161.0472 C.ar    1  UNL1        0.3342
     10 O         141.8270  140.1624  159.6109 O.2     1  UNL1       -0.2462
     11 N         141.3469  139.7847  162.1361 N.ar    1  UNL1       -0.2770
     12 C         140.3798  138.6920  161.7888 C.3     1  UNL1        0.1351
     13 N         141.3703  140.1351  167.4475 N.pl3   1  UNL1       -0.2925
     14 C         140.0928  140.7288  167.9631 C.3     1  UNL1        0.0936
     15 C         139.5369  140.6862  169.3555 C.3     1  UNL1        0.0385
     16 C         140.1209  140.0394  170.5765 C.3     1  UNL1        0.0704
     17 N         141.4052  139.2754  170.7064 N.3     1  UNL1       -0.2960
     18 C         142.4226  138.9695  169.6474 C.3     1  UNL1        0.0903
     19 C         142.4071  139.3521  168.1972 C.3     1  UNL1        0.1092
     20 H         141.1241  138.3617  171.0622 H       1  UNL1        0.1233
     21 C         140.0225  138.4906  164.9719 C.1     1  UNL1        0.1047
     22 N         139.0170  137.3840  165.0921 N.1     1  UNL1       -0.1907
     23 C         143.4270  142.3371  166.1944 C.3     1  UNL1        0.1842
     24 C         142.7636  142.8250  170.6184 C.3     1  UNL1        0.0900
     25 C         142.9847  142.6624  169.1437 C.1     1  UNL1       -0.0881
     26 C         143.2058  142.4997  167.6691 C.1     1  UNL1       -0.0656
     27 C         143.7613  142.3478  160.3055 C.3     1  UNL1        0.1600
     28 C         143.0169  143.3088  159.4265 C.ar    1  UNL1        0.0916
     29 N         142.0829  144.3125  160.0349 N.ar    1  UNL1       -0.2455
     30 C         141.3386  145.2735  159.1560 C.ar    1  UNL1        0.0985
     31 C         141.5282  145.2307  157.6686 C.ar    1  UNL1        0.0198
     32 C         140.7839  146.1917  156.7897 C.ar    1  UNL1        0.0016
     33 C         140.9736  146.1489  155.3024 C.ar    1  UNL1        0.0000
     34 C         141.9076  145.1451  154.6940 C.ar    1  UNL1        0.0000
     35 C         142.6519  144.1842  155.5729 C.ar    1  UNL1        0.0008
     36 C         142.4622  144.2270  157.0602 C.ar    1  UNL1        0.0123
     37 C         143.2066  143.2660  157.9392 C.ar    1  UNL1        0.0839
     38 C         144.1406  142.2623  157.3308 C.1     1  UNL1        0.1017
     39 N         145.0746  141.2585  156.7224 N.1     1  UNL1       -0.1908
@<TRIPOS>BOND
     1    24    25    1
     2    25    26    3
     3    26    23    1
     4    23     1    1
     5     1     2   ar
     6     2    13    1
     7    13    14    1
     8    14    15    1
     9    15    16    1
    10    16    17    1
    11    17    18    1
    12    18    19    1
    13     2     3   ar
    14     3    21    1
    15    21    22    3
    16     3     4   ar
    17     4     5   ar
    18     5     6   ar
    19     6     7    2
    20     6     8   ar
    21     8    27    1
    22    27    28    1
    23    28    29   ar
    24    29    30   ar
    25    30    31   ar
    26    31    32   ar
    27    32    33   ar
    28    33    34   ar
    29    34    35   ar
    30    35    36   ar
    31    36    37   ar
    32    37    38    1
    33    38    39    3
    34     8     9   ar
    35     9    10    2
    36     9    11   ar
    37    11    12    1
    38     5     1   ar
    39    37    28   ar
    40    19    13    1
    41    11     4   ar
    42    36    31   ar
    43    17    20    1
@<TRIPOS>MOLECULE
*****
 39 43 0 0 0
SMALL
GASTEIGER

@<TRIPOS>ATOM
      1 N         140.6008  139.5543  159.0842 N.ar    1  UNL1       -0.2986
      2 C         141.3688  139.2278  157.8379 C.ar    1  UNL1        0.1245
      3 C         142.0611  140.4769  157.3794 C.ar    1  UNL1        0.1157
      4 C         141.7210  141.5755  158.3424 C.ar    1  UNL1        0.0967
      5 C         140.8184  141.0053  159.3960 C.ar    1  UNL1        0.1354
      6 C         140.3113  141.8810  160.5033 C.ar    1  UNL1        0.2819
      7 O         139.4087  141.3107  161.5570 O.2     1  UNL1       -0.2652
      8 N         140.7068  143.3269  160.5569 N.ar    1  UNL1       -0.2417
      9 C         141.6093  143.8971  159.5033 C.ar    1  UNL1        0.3342
     10 O         142.0048  145.3430  159.5569 O.2     1  UNL1       -0.2462
     11 N         142.1164  143.0215  158.3960 N.ar    1  UNL1       -0.2770
     12 C         143.0190  143.5918  157.3424 C.3     1  UNL1        0.1351
     13 N         141.4333  137.8874  157.1676 N.pl3   1  UNL1       -0.2925
     14 C         142.6291  137.0473  157.5060 C.3     1  UNL1        0.0936
     15 C         142.9803  135.6768  157.0079 C.3     1  UNL1        0.0385
     16 C         142.2226  134.8077  156.0485 C.3     1  UNL1        0.0704
     17 N         140.9264  135.0945  155.3502 N.3     1  UNL1       -0.2960
     18 C         140.0679  136.3214  155.4389 C.3     1  UNL1        0.0903
     19 C         140.2934  137.5642  156.2476 C.3     1  UNL1        0.1092
     20 H         140.3108  134.3310  155.6304 H       1  UNL1        0.1233
     21 C         142.9395  140.6051  156.1702 C.1     1  UNL1        0.1047
     22 N         143.8178  140.7333  154.9610 N.1     1  UNL1       -0.1907
     23 C         139.7623  138.5977  159.8792 C.3     1  UNL1        0.1842
     24 C         141.1691  137.1908  163.9154 C.3     1  UNL1        0.0900
     25 C         140.7002  137.6598  162.5700 C.1     1  UNL1       -0.0881
     26 C         140.2312  138.1287  161.2246 C.1     1  UNL1       -0.0656
     27 C         140.1997  144.2025  161.6642 C.3     1  UNL1        0.1600
     28 C         140.3119  143.7496  163.0898 C.ar    1  UNL1        0.0916
     29 N         139.0732  143.5306  163.9069 N.ar    1  UNL1       -0.2455
     30 C         139.1854  143.0778  165.3325 C.ar    1  UNL1        0.0985
     31 C         140.5364  142.8439  165.9410 C.ar    1  UNL1        0.0198
     32 C         140.6486  142.3910  167.3666 C.ar    1  UNL1        0.0016
     33 C         141.9996  142.1571  167.9751 C.ar    1  UNL1        0.0000
     34 C         143.2383  142.3762  167.1580 C.ar    1  UNL1        0.0000
     35 C         143.1260  142.8290  165.7324 C.ar    1  UNL1        0.0008
     36 C         141.7751  143.0629  165.1239 C.ar    1  UNL1        0.0123
     37 C         141.6629  143.5158  163.6983 C.ar    1  UNL1        0.0839
     38 C         142.9016  143.7348  162.8812 C.1     1  UNL1        0.1017
     39 N         144.1403  143.9538  162.0641 N.1     1  UNL1       -0.1908
@<TRIPOS>BOND
     1    24    25    1
     2    25    26    3
     3    26    23    1
     4    23     1    1
     5     1     2   ar
     6     2    13    1
     7    13    14    1
     8    14    15    1
     9    15    16    1
    10    16    17    1
    11    17    18    1
    12    18    19    1
    13     2     3   ar
    14     3    21    1
    15    21    22    3
    16     3     4   ar
    17     4     5   ar
    18     5     6   ar
    19     6     7    2
    20     6     8   ar
    21     8    27    1
    22    27    28    1
    23    28    29   ar
    24    29    30   ar
    25    30    31   ar
    26    31    32   ar
    27    32    33   ar
    28    33    34   ar
    29    34    35   ar
    30    35    36   ar
    31    36    37   ar
    32    37    38    1
    33    38    39    3
    34     8     9   ar
    35     9    10    2
    36     9    11   ar
    37    11    12    1
    38     5     1   ar
    39    37    28   ar
    40    19    13    1
    41    11     4   ar
    42    36    31   ar
    43    17    20    1
@<TRIPOS>MOLECULE
*****
 39 43 0 0 0
SMALL
GASTEIGER

@<TRIPOS>ATOM
      1 N         142.8487  141.0668  159.6894 N.ar    1  UNL1       -0.2986
      2 C         143.1042  142.1222  158.6547 C.ar    1  UNL1        0.1245
      3 C         142.3721  143.3642  159.0688 C.ar    1  UNL1        0.1157
      4 C         141.6641  143.0764  160.3594 C.ar    1  UNL1        0.0967
      5 C         141.9586  141.6565  160.7430 C.ar    1  UNL1        0.1354
      6 C         141.3783  141.0839  162.0022 C.ar    1  UNL1        0.2819
      7 O         141.6728  139.6640  162.3858 O.2     1  UNL1       -0.2652
      8 N         140.5034  141.9313  162.8777 N.ar    1  UNL1       -0.2417
      9 C         140.2089  143.3512  162.4941 C.ar    1  UNL1        0.3342
     10 O         139.3341  144.1986  163.3697 O.2     1  UNL1       -0.2462
     11 N         140.7892  143.9237  161.2350 N.ar    1  UNL1       -0.2770
     12 C         140.4947  145.3436  160.8515 C.3     1  UNL1        0.1351
     13 N         143.9444  141.9636  157.4223 N.pl3   1  UNL1       -0.2925
     14 C         143.2206  141.4859  156.1982 C.3     1  UNL1        0.0936
     15 C         143.7710  141.2303  154.8265 C.3     1  UNL1        0.0385
     16 C         145.1809  141.3891  154.3399 C.3     1  UNL1        0.0704
     17 N         146.3888  141.8428  155.1048 N.3     1  UNL1       -0.2960
     18 C         146.4850  142.2497  156.5454 C.3     1  UNL1        0.0903
     19 C         145.3972  142.3035  157.5767 C.3     1  UNL1        0.1092
     20 H         146.7297  142.6529  154.5872 H       1  UNL1        0.1233
     21 C         142.3517  144.6656  158.3231 C.1     1  UNL1        0.1047
     22 N         142.3312  145.9670  157.5775 N.1     1  UNL1       -0.1907
     23 C         143.3884  139.6673  159.6734 C.3     1  UNL1        0.1842
     24 C         141.8834  136.7102  156.6337 C.3     1  UNL1        0.0900
     25 C         142.3851  137.6959  157.6469 C.1     1  UNL1       -0.0881
     26 C         142.8867  138.6816  158.6602 C.1     1  UNL1       -0.0656
     27 C         139.9231  141.3588  164.1368 C.3     1  UNL1        0.1600
     28 C         140.7154  141.3911  165.4102 C.ar    1  UNL1        0.0916
     29 N         141.9712  142.2073  165.4916 N.ar    1  UNL1       -0.2455
     30 C         142.7635  142.2396  166.7649 C.ar    1  UNL1        0.0985
     31 C         142.2999  141.4557  167.9568 C.ar    1  UNL1        0.0198
     32 C         143.0921  141.4880  169.2301 C.ar    1  UNL1        0.0016
     33 C         142.6285  140.7041  170.4219 C.ar    1  UNL1        0.0000
     34 C         141.3727  139.8879  170.3405 C.ar    1  UNL1        0.0000
     35 C         140.5804  139.8556  169.0672 C.ar    1  UNL1        0.0008
     36 C         141.0440  140.6395  167.8754 C.ar    1  UNL1        0.0123
     37 C         140.2518  140.6072  166.6020 C.ar    1  UNL1        0.0839
     38 C         138.9959  139.7910  166.5206 C.1     1  UNL1        0.1017
     39 N         137.7401  138.9747  166.4392 N.1     1  UNL1       -0.1908
@<TRIPOS>BOND
     1    24    25    1
     2    25    26    3
     3    26    23    1
     4    23     1    1
     5     1     2   ar
     6     2    13    1
     7    13    14    1
     8    14    15    1
     9    15    16    1
    10    16    17    1
    11    17    18    1
    12    18    19    1
    13     2     3   ar
    14     3    21    1
    15    21    22    3
    16     3     4   ar
    17     4     5   ar
    18     5     6   ar
    19     6     7    2
    20     6     8   ar
    21     8    27    1
    22    27    28    1
    23    28    29   ar
    24    29    30   ar
    25    30    31   ar
    26    31    32   ar
    27    32    33   ar
    28    33    34   ar
    29    34    35   ar
    30    35    36   ar
    31    36    37   ar
    32    37    38    1
    33    38    39    3
    34     8     9   ar
    35     9    10    2
    36     9    11   ar
    37    11    12    1
    38     5     1   ar
    39    37    28   ar
    40    19    13    1
    41    11     4   ar
    42    36    31   ar
    43    17    20    1
@<TRIPOS>MOLECULE
*****
 39 43 0 0 0
SMALL
GASTEIGER

@<TRIPOS>ATOM
      1 N         142.9510  141.1708  159.9895 N.ar    1  UNL1       -0.2986
      2 C         143.3591  142.0916  158.8781 C.ar    1  UNL1        0.1245
      3 C         142.3922  143.2379  158.8473 C.ar    1  UNL1        0.1157
      4 C         141.3865  143.0256  159.9397 C.ar    1  UNL1        0.0967
      5 C         141.7319  141.7480  160.6457 C.ar    1  UNL1        0.1354
      6 C         140.8916  141.2753  161.7949 C.ar    1  UNL1        0.2819
      7 O         141.2370  139.9976  162.5009 O.2     1  UNL1       -0.2652
      8 N         139.7060  142.0802  162.2380 N.ar    1  UNL1       -0.2417
      9 C         139.3606  143.3578  161.5320 C.ar    1  UNL1        0.3342
     10 O         138.1750  144.1627  161.9752 O.2     1  UNL1       -0.2462
     11 N         140.2008  143.8305  160.3829 N.ar    1  UNL1       -0.2770
     12 C         139.8555  145.1081  159.6769 C.3     1  UNL1        0.1351
     13 N         144.5287  141.8998  157.9588 N.pl3   1  UNL1       -0.2925
     14 C         145.6963  142.8123  158.1919 C.3     1  UNL1        0.0936
     15 C         146.9996  142.8711  157.4518 C.3     1  UNL1        0.0385
     16 C         147.4573  142.0322  156.2956 C.3     1  UNL1        0.0704
     17 N         146.7247  140.9271  155.5941 N.3     1  UNL1       -0.2960
     18 C         145.3535  140.3881  155.8755 C.3     1  UNL1        0.0903
     19 C         144.3762  140.8209  156.9278 C.3     1  UNL1        0.1092
     20 H         147.3399  140.1180  155.6799 H       1  UNL1        0.1233
     21 C         142.4252  144.3938  157.8918 C.1     1  UNL1        0.1047
     22 N         142.4581  145.5496  156.9362 N.1     1  UNL1       -0.1907
     23 C         143.6409  139.8964  160.3769 C.3     1  UNL1        0.1842
     24 C         145.1800  139.3560  164.5708 C.3     1  UNL1        0.0900
     25 C         144.6669  139.5361  163.1728 C.1     1  UNL1       -0.0881
     26 C         144.1540  139.7163  161.7749 C.1     1  UNL1       -0.0656
     27 C         138.8658  141.6075  163.3871 C.3     1  UNL1        0.1600
     28 C         139.3128  141.8594  164.7967 C.ar    1  UNL1        0.0916
     29 N         139.6679  143.2497  165.2337 N.ar    1  UNL1       -0.2455
     30 C         140.1150  143.5016  166.6432 C.ar    1  UNL1        0.0985
     31 C         140.2069  142.3632  167.6157 C.ar    1  UNL1        0.0198
     32 C         140.6539  142.6152  169.0252 C.ar    1  UNL1        0.0016
     33 C         140.7459  141.4768  169.9976 C.ar    1  UNL1        0.0000
     34 C         140.3908  140.0865  169.5606 C.ar    1  UNL1        0.0000
     35 C         139.9437  139.8346  168.1511 C.ar    1  UNL1        0.0008
     36 C         139.8518  140.9729  167.1787 C.ar    1  UNL1        0.0123
     37 C         139.4047  140.7210  165.7691 C.ar    1  UNL1        0.0839
     38 C         139.0496  139.3307  165.3321 C.1     1  UNL1        0.1017
     39 N         138.6945  137.9404  164.8950 N.1     1  UNL1       -0.1908
@<TRIPOS>BOND
     1    24    25    1
     2    25    26    3
     3    26    23    1
     4    23     1    1
     5     1     2   ar
     6     2    13    1
     7    13    14    1
     8    14    15    1
     9    15    16    1
    10    16    17    1
    11    17    18    1
    12    18    19    1
    13     2     3   ar
    14     3    21    1
    15    21    22    3
    16     3     4   ar
    17     4     5   ar
    18     5     6   ar
    19     6     7    2
    20     6     8   ar
    21     8    27    1
    22    27    28    1
    23    28    29   ar
    24    29    30   ar
    25    30    31   ar
    26    31    32   ar
    27    32    33   ar
    28    33    34   ar
    29    34    35   ar
    30    35    36   ar
    31    36    37   ar
    32    37    38    1
    33    38    39    3
    34     8     9   ar
    35     9    10    2
    36     9    11   ar
    37    11    12    1
    38     5     1   ar
    39    37    28   ar
    40    19    13    1
    41    11     4   ar
    42    36    31   ar
    43    17    20    1
