@<TRIPOS>MOLECULE
*****
 22 23 0 0 0
SMALL
GASTEIGER

@<TRIPOS>ATOM
      1 C         140.4490  144.2238  163.9997 C.ar    1  UNL1        0.0267
      2 C         141.3652  145.2068  163.3331 C.ar    1  UNL1        0.0032
      3 C         142.8177  144.8771  163.1557 C.ar    1  UNL1        0.0368
      4 C         143.3541  143.5645  163.6448 C.ar    1  UNL1        0.1418
      5 C         142.4379  142.5815  164.3113 C.ar    1  UNL1        0.0741
      6 C         140.9854  142.9112  164.4888 C.ar    1  UNL1        0.1455
      7 C         138.9965  144.5535  164.1771 C.3     1  UNL1        0.0799
      8 C         138.4945  145.0397  165.5043 C.3     1  UNL1        0.0221
      9 C         138.0739  143.1487  162.1959 C.3     1  UNL1        0.0861
     10 N         138.0460  144.3968  163.0274 N.3     1  UNL1       -0.2939
     11 H         137.1042  144.4738  163.4113 H       1  UNL1        0.1235
     12 O         144.8066  143.2349  163.4673 O.3     1  UNL1       -0.4713
     13 C         145.2096  141.9186  162.8717 C.3     1  UNL1        0.2525
     14 O         140.0692  141.9281  165.1553 O.3     1  UNL1       -0.4536
     15 C         140.1663  141.6959  166.6340 C.ar    1  UNL1        0.1462
     16 C         140.0022  140.3116  167.1882 C.ar    1  UNL1        0.0384
     17 C         140.0993  140.0794  168.6669 C.ar    1  UNL1        0.0154
     18 C         140.3604  141.2314  169.5915 C.ar    1  UNL1        0.0684
     19 CL        140.4575  140.9992  171.0702 Cl      1  UNL1       -0.0814
     20 C         140.5244  142.6156  169.0374 C.ar    1  UNL1        0.0712
     21 CL        140.7855  143.7675  169.9619 Cl      1  UNL1       -0.0813
     22 C         140.4274  142.8478  167.5586 C.ar    1  UNL1        0.0497
@<TRIPOS>BOND
     1     9    10    1
     2    10     7    1
     3     7     8    1
     4     7     1    1
     5     1     2   ar
     6     2     3   ar
     7     3     4   ar
     8     4    12    1
     9    12    13    1
    10     4     5   ar
    11     5     6   ar
    12     6    14    1
    13    14    15    1
    14    15    16   ar
    15    16    17   ar
    16    17    18   ar
    17    18    19    1
    18    18    20   ar
    19    20    21    1
    20    20    22   ar
    21     6     1   ar
    22    22    15   ar
    23    10    11    1
@<TRIPOS>MOLECULE
*****
 22 23 0 0 0
SMALL
GASTEIGER

@<TRIPOS>ATOM
      1 C         139.7853  139.2171  164.6103 C.ar    1  UNL1        0.0267
      2 C         139.9359  137.8269  164.0675 C.ar    1  UNL1        0.0032
      3 C         141.2064  137.4240  163.3793 C.ar    1  UNL1        0.0368
      4 C         142.3262  138.4113  163.2338 C.ar    1  UNL1        0.1418
      5 C         142.1756  139.8015  163.7766 C.ar    1  UNL1        0.0741
      6 C         140.9051  140.2044  164.4648 C.ar    1  UNL1        0.1455
      7 C         138.5149  139.6200  165.2985 C.3     1  UNL1        0.0799
      8 C         138.0345  138.8536  166.4951 C.3     1  UNL1        0.0221
      9 C         137.5342  140.9811  163.3147 C.3     1  UNL1        0.0861
     10 N         137.7247  140.7892  164.7901 N.3     1  UNL1       -0.2939
     11 H         136.7937  140.7161  165.2002 H       1  UNL1        0.1235
     12 O         143.5966  138.0084  162.5456 O.3     1  UNL1       -0.4713
     13 C         143.6801  138.0370  161.0482 C.3     1  UNL1        0.2525
     14 O         140.7545  141.5946  165.0076 O.3     1  UNL1       -0.4536
     15 C         141.2895  141.9307  166.3681 C.ar    1  UNL1        0.1462
     16 C         142.7706  141.9871  166.5987 C.ar    1  UNL1        0.0384
     17 C         143.3055  142.3231  167.9592 C.ar    1  UNL1        0.0154
     18 C         142.3594  142.6027  169.0890 C.ar    1  UNL1        0.0684
     19 CL        142.8943  142.9387  170.4495 Cl      1  UNL1       -0.0814
     20 C         140.8783  142.5463  168.8585 C.ar    1  UNL1        0.0712
     21 CL        139.9322  142.8260  169.9883 Cl      1  UNL1       -0.0813
     22 C         140.3433  142.2103  167.4979 C.ar    1  UNL1        0.0497
@<TRIPOS>BOND
     1     9    10    1
     2    10     7    1
     3     7     8    1
     4     7     1    1
     5     1     2   ar
     6     2     3   ar
     7     3     4   ar
     8     4    12    1
     9    12    13    1
    10     4     5   ar
    11     5     6   ar
    12     6    14    1
    13    14    15    1
    14    15    16   ar
    15    16    17   ar
    16    17    18   ar
    17    18    19    1
    18    18    20   ar
    19    20    21    1
    20    20    22   ar
    21     6     1   ar
    22    22    15   ar
    23    10    11    1
@<TRIPOS>MOLECULE
*****
 22 23 0 0 0
SMALL
GASTEIGER

@<TRIPOS>ATOM
      1 C         138.9883  143.0262  164.2996 C.ar    1  UNL1        0.0267
      2 C         137.6839  142.6036  163.6914 C.ar    1  UNL1        0.0032
      3 C         137.4681  141.1720  163.2992 C.ar    1  UNL1        0.0368
      4 C         138.5567  140.1629  163.5153 C.ar    1  UNL1        0.1418
      5 C         139.8611  140.5854  164.1235 C.ar    1  UNL1        0.0741
      6 C         140.0769  142.0171  164.5157 C.ar    1  UNL1        0.1455
      7 C         139.2041  144.4578  164.6918 C.3     1  UNL1        0.0799
      8 C         138.3926  145.0627  165.7989 C.3     1  UNL1        0.0221
      9 C         140.1251  145.4967  162.4958 C.3     1  UNL1        0.0861
     10 N         140.2314  145.2846  163.9769 N.3     1  UNL1       -0.2939
     11 H         140.2178  146.2087  164.4085 H       1  UNL1        0.1235
     12 O         138.3409  138.7312  163.1231 O.3     1  UNL1       -0.4713
     13 C         137.8451  138.3970  161.7475 C.3     1  UNL1        0.2525
     14 O         141.3813  142.4396  165.1240 O.3     1  UNL1       -0.4536
     15 C         141.6000  142.3005  166.6014 C.ar    1  UNL1        0.1462
     16 C         142.9888  142.3695  167.1639 C.ar    1  UNL1        0.0384
     17 C         143.2075  142.2304  168.6413 C.ar    1  UNL1        0.0154
     18 C         142.0373  142.0221  169.5563 C.ar    1  UNL1        0.0684
     19 CL        142.2559  141.8829  171.0337 Cl      1  UNL1       -0.0814
     20 C         140.6484  141.9530  168.9939 C.ar    1  UNL1        0.0712
     21 CL        139.4782  141.7448  169.9089 Cl      1  UNL1       -0.0813
     22 C         140.4297  142.0922  167.5164 C.ar    1  UNL1        0.0497
@<TRIPOS>BOND
     1     9    10    1
     2    10     7    1
     3     7     8    1
     4     7     1    1
     5     1     2   ar
     6     2     3   ar
     7     3     4   ar
     8     4    12    1
     9    12    13    1
    10     4     5   ar
    11     5     6   ar
    12     6    14    1
    13    14    15    1
    14    15    16   ar
    15    16    17   ar
    16    17    18   ar
    17    18    19    1
    18    18    20   ar
    19    20    21    1
    20    20    22   ar
    21     6     1   ar
    22    22    15   ar
    23    10    11    1
@<TRIPOS>MOLECULE
*****
 22 23 0 0 0
SMALL
GASTEIGER

@<TRIPOS>ATOM
      1 C         138.5005  140.1744  165.3872 C.ar    1  UNL1        0.0267
      2 C         137.8599  139.1349  166.2584 C.ar    1  UNL1        0.0032
      3 C         138.2752  138.9993  167.6934 C.ar    1  UNL1        0.0368
      4 C         139.3312  139.9031  168.2571 C.ar    1  UNL1        0.1418
      5 C         139.9719  140.9426  167.3859 C.ar    1  UNL1        0.0741
      6 C         139.5566  141.0782  165.9510 C.ar    1  UNL1        0.1455
      7 C         138.0852  140.3100  163.9523 C.3     1  UNL1        0.0799
      8 C         138.4708  139.2562  162.9570 C.3     1  UNL1        0.0221
      9 C         137.7969  142.3852  162.4159 C.3     1  UNL1        0.0861
     10 N         137.2841  141.4996  163.5126 N.3     1  UNL1       -0.2939
     11 H         136.3772  141.1470  163.2066 H       1  UNL1        0.1235
     12 O         139.7466  139.7674  169.6921 O.3     1  UNL1       -0.4713
     13 C         141.2016  139.7826  170.0563 C.3     1  UNL1        0.2525
     14 O         140.1973  142.1177  165.0798 O.3     1  UNL1       -0.4536
     15 C         141.6505  142.0068  164.7249 C.ar    1  UNL1        0.1462
     16 C         142.5334  143.2177  164.7917 C.ar    1  UNL1        0.0384
     17 C         143.9865  143.1068  164.4367 C.ar    1  UNL1        0.0154
     18 C         144.5568  141.7851  164.0150 C.ar    1  UNL1        0.0684
     19 CL        146.0100  141.6742  163.6601 Cl      1  UNL1       -0.0814
     20 C         143.6740  140.5743  163.9482 C.ar    1  UNL1        0.0712
     21 CL        144.2443  139.2526  163.5265 Cl      1  UNL1       -0.0813
     22 C         142.2208  140.6852  164.3031 C.ar    1  UNL1        0.0497
@<TRIPOS>BOND
     1     9    10    1
     2    10     7    1
     3     7     8    1
     4     7     1    1
     5     1     2   ar
     6     2     3   ar
     7     3     4   ar
     8     4    12    1
     9    12    13    1
    10     4     5   ar
    11     5     6   ar
    12     6    14    1
    13    14    15    1
    14    15    16   ar
    15    16    17   ar
    16    17    18   ar
    17    18    19    1
    18    18    20   ar
    19    20    21    1
    20    20    22   ar
    21     6     1   ar
    22    22    15   ar
    23    10    11    1
@<TRIPOS>MOLECULE
*****
 22 23 0 0 0
SMALL
GASTEIGER

@<TRIPOS>ATOM
      1 C         141.3944  144.4946  163.3437 C.ar    1  UNL1        0.0267
      2 C         142.5491  145.3269  163.8168 C.ar    1  UNL1        0.0032
      3 C         143.8641  144.6765  164.1292 C.ar    1  UNL1        0.0368
      4 C         144.0245  143.1938  163.9686 C.ar    1  UNL1        0.1418
      5 C         142.8698  142.3615  163.4954 C.ar    1  UNL1        0.0741
      6 C         141.5547  143.0119  163.1830 C.ar    1  UNL1        0.1455
      7 C         140.0793  145.1450  163.0313 C.3     1  UNL1        0.0799
      8 C         139.9808  146.1373  161.9108 C.3     1  UNL1        0.0221
      9 C         137.6521  144.2280  163.1656 C.3     1  UNL1        0.0861
     10 N         138.8627  144.8030  163.8393 N.3     1  UNL1       -0.2939
     11 H         139.1574  144.1260  164.5431 H       1  UNL1        0.1235
     12 O         145.3396  142.5434  164.2810 O.3     1  UNL1       -0.4713
     13 C         145.5885  141.1214  163.8737 C.3     1  UNL1        0.2525
     14 O         140.4000  142.1795  162.7099 O.3     1  UNL1       -0.4536
     15 C         139.8119  141.1327  163.6089 C.ar    1  UNL1        0.1462
     16 C         139.4961  141.4626  165.0378 C.ar    1  UNL1        0.0384
     17 C         138.9081  140.4158  165.9369 C.ar    1  UNL1        0.0154
     18 C         138.6357  139.0391  165.4072 C.ar    1  UNL1        0.0684
     19 CL        138.0477  137.9923  166.3062 Cl      1  UNL1       -0.0814
     20 C         138.9515  138.7092  163.9784 C.ar    1  UNL1        0.0712
     21 CL        138.6792  137.3325  163.4487 Cl      1  UNL1       -0.0813
     22 C         139.5396  139.7560  163.0792 C.ar    1  UNL1        0.0497
@<TRIPOS>BOND
     1     9    10    1
     2    10     7    1
     3     7     8    1
     4     7     1    1
     5     1     2   ar
     6     2     3   ar
     7     3     4   ar
     8     4    12    1
     9    12    13    1
    10     4     5   ar
    11     5     6   ar
    12     6    14    1
    13    14    15    1
    14    15    16   ar
    15    16    17   ar
    16    17    18   ar
    17    18    19    1
    18    18    20   ar
    19    20    21    1
    20    20    22   ar
    21     6     1   ar
    22    22    15   ar
    23    10    11    1
@<TRIPOS>MOLECULE
*****
 22 23 0 0 0
SMALL
GASTEIGER

@<TRIPOS>ATOM
      1 C         139.7250  140.0180  167.5845 C.ar    1  UNL1        0.0267
      2 C         138.4078  139.3327  167.3718 C.ar    1  UNL1        0.0032
      3 C         138.1911  138.4862  166.1527 C.ar    1  UNL1        0.0368
      4 C         139.2915  138.3249  165.1462 C.ar    1  UNL1        0.1418
      5 C         140.6087  139.0103  165.3589 C.ar    1  UNL1        0.0741
      6 C         140.8254  139.8568  166.5781 C.ar    1  UNL1        0.1455
      7 C         139.9417  140.8646  168.8037 C.3     1  UNL1        0.0799
      8 C         139.6633  140.3026  170.1662 C.3     1  UNL1        0.0221
      9 C         141.5719  142.7596  169.5120 C.3     1  UNL1        0.0861
     10 N         140.4369  142.2732  168.6603 N.3     1  UNL1       -0.2939
     11 H         140.7283  142.3855  167.6893 H       1  UNL1        0.1235
     12 O         139.0747  137.4784  163.9270 O.3     1  UNL1       -0.4713
     13 C         138.7679  138.1258  162.6093 C.3     1  UNL1        0.2525
     14 O         142.1427  140.5422  166.7907 O.3     1  UNL1       -0.4536
     15 C         142.6943  141.4516  165.7331 C.ar    1  UNL1        0.1462
     16 C         143.9338  141.0639  164.9825 C.ar    1  UNL1        0.0384
     17 C         144.4855  141.9733  163.9249 C.ar    1  UNL1        0.0154
     18 C         143.7977  143.2705  163.6179 C.ar    1  UNL1        0.0684
     19 CL        144.3494  144.1799  162.5602 Cl      1  UNL1       -0.0814
     20 C         142.5583  143.6583  164.3685 C.ar    1  UNL1        0.0712
     21 CL        141.8706  144.9555  164.0615 Cl      1  UNL1       -0.0813
     22 C         142.0066  142.7488  165.4261 C.ar    1  UNL1        0.0497
@<TRIPOS>BOND
     1     9    10    1
     2    10     7    1
     3     7     8    1
     4     7     1    1
     5     1     2   ar
     6     2     3   ar
     7     3     4   ar
     8     4    12    1
     9    12    13    1
    10     4     5   ar
    11     5     6   ar
    12     6    14    1
    13    14    15    1
    14    15    16   ar
    15    16    17   ar
    16    17    18   ar
    17    18    19    1
    18    18    20   ar
    19    20    21    1
    20    20    22   ar
    21     6     1   ar
    22    22    15   ar
    23    10    11    1
@<TRIPOS>MOLECULE
*****
 22 23 0 0 0
SMALL
GASTEIGER

@<TRIPOS>ATOM
      1 C         139.7671  138.3529  164.5609 C.ar    1  UNL1        0.0267
      2 C         138.4590  138.0174  165.2137 C.ar    1  UNL1        0.0032
      3 C         138.1670  138.5042  166.6022 C.ar    1  UNL1        0.0368
      4 C         139.1832  139.3264  167.3378 C.ar    1  UNL1        0.1418
      5 C         140.4913  139.6619  166.6851 C.ar    1  UNL1        0.0741
      6 C         140.7833  139.1751  165.2966 C.ar    1  UNL1        0.1455
      7 C         140.0591  137.8661  163.1725 C.3     1  UNL1        0.0799
      8 C         139.0404  138.0434  162.0859 C.3     1  UNL1        0.0221
      9 C         142.1887  137.6568  161.6990 C.3     1  UNL1        0.0861
     10 N         141.3698  137.2021  162.8706 N.3     1  UNL1       -0.2939
     11 H         141.9541  137.3135  163.6993 H       1  UNL1        0.1235
     12 O         138.8912  139.8132  168.7263 O.3     1  UNL1       -0.4713
     13 C         139.8903  140.6694  169.4465 C.3     1  UNL1        0.2525
     14 O         142.0916  139.5106  164.6438 O.3     1  UNL1       -0.4536
     15 C         142.5325  140.9405  164.5389 C.ar    1  UNL1        0.1462
     16 C         143.9568  141.3095  164.8308 C.ar    1  UNL1        0.0384
     17 C         144.3977  142.7394  164.7259 C.ar    1  UNL1        0.0154
     18 C         143.4143  143.8003  164.3290 C.ar    1  UNL1        0.0684
     19 CL        143.8552  145.2301  164.2240 Cl      1  UNL1       -0.0814
     20 C         141.9901  143.4313  164.0370 C.ar    1  UNL1        0.0712
     21 CL        141.0067  144.4922  163.6401 Cl      1  UNL1       -0.0813
     22 C         141.5491  142.0014  164.1420 C.ar    1  UNL1        0.0497
@<TRIPOS>BOND
     1     9    10    1
     2    10     7    1
     3     7     8    1
     4     7     1    1
     5     1     2   ar
     6     2     3   ar
     7     3     4   ar
     8     4    12    1
     9    12    13    1
    10     4     5   ar
    11     5     6   ar
    12     6    14    1
    13    14    15    1
    14    15    16   ar
    15    16    17   ar
    16    17    18   ar
    17    18    19    1
    18    18    20   ar
    19    20    21    1
    20    20    22   ar
    21     6     1   ar
    22    22    15   ar
    23    10    11    1
@<TRIPOS>MOLECULE
*****
 22 23 0 0 0
SMALL
GASTEIGER

@<TRIPOS>ATOM
      1 C         139.2160  140.2836  166.9806 C.ar    1  UNL1        0.0267
      2 C         138.8846  139.7205  168.3307 C.ar    1  UNL1        0.0032
      3 C         139.4723  140.3370  169.5654 C.ar    1  UNL1        0.0368
      4 C         140.3915  141.5167  169.4500 C.ar    1  UNL1        0.1418
      5 C         140.7229  142.0798  168.0998 C.ar    1  UNL1        0.0741
      6 C         140.1352  141.4633  166.8651 C.ar    1  UNL1        0.1455
      7 C         138.6283  139.6671  165.7459 C.3     1  UNL1        0.0799
      8 C         138.8566  138.2141  165.4516 C.3     1  UNL1        0.0221
      9 C         137.9833  140.3489  163.3233 C.3     1  UNL1        0.0861
     10 N         137.8123  140.5035  164.8055 N.3     1  UNL1       -0.2939
     11 H         136.8328  140.3070  165.0110 H       1  UNL1        0.1235
     12 O         140.9792  142.1332  170.6847 O.3     1  UNL1       -0.4713
     13 C         142.3719  142.6894  170.6552 C.3     1  UNL1        0.2525
     14 O         140.4667  142.0265  165.5149 O.3     1  UNL1       -0.4536
     15 C         141.8737  141.9599  164.9994 C.ar    1  UNL1        0.1462
     16 C         142.5313  143.1922  164.4525 C.ar    1  UNL1        0.0384
     17 C         143.9383  143.1255  163.9369 C.ar    1  UNL1        0.0154
     18 C         144.6878  141.8266  163.9682 C.ar    1  UNL1        0.0684
     19 CL        146.0948  141.7599  163.4526 Cl      1  UNL1       -0.0814
     20 C         144.0303  140.5943  164.5150 C.ar    1  UNL1        0.0712
     21 CL        144.7798  139.2953  164.5463 Cl      1  UNL1       -0.0813
     22 C         142.6232  140.6609  165.0306 C.ar    1  UNL1        0.0497
@<TRIPOS>BOND
     1     9    10    1
     2    10     7    1
     3     7     8    1
     4     7     1    1
     5     1     2   ar
     6     2     3   ar
     7     3     4   ar
     8     4    12    1
     9    12    13    1
    10     4     5   ar
    11     5     6   ar
    12     6    14    1
    13    14    15    1
    14    15    16   ar
    15    16    17   ar
    16    17    18   ar
    17    18    19    1
    18    18    20   ar
    19    20    21    1
    20    20    22   ar
    21     6     1   ar
    22    22    15   ar
    23    10    11    1
@<TRIPOS>MOLECULE
*****
 22 23 0 0 0
SMALL
GASTEIGER

@<TRIPOS>ATOM
      1 C         139.1222  139.9343  167.0902 C.ar    1  UNL1        0.0267
      2 C         139.3413  139.9115  168.5739 C.ar    1  UNL1        0.0032
      3 C         140.0603  141.0451  169.2433 C.ar    1  UNL1        0.0368
      4 C         140.5600  142.2015  168.4290 C.ar    1  UNL1        0.1418
      5 C         140.3409  142.2242  166.9453 C.ar    1  UNL1        0.0741
      6 C         139.6220  141.0906  166.2759 C.ar    1  UNL1        0.1455
      7 C         138.4033  138.8007  166.4207 C.3     1  UNL1        0.0799
      8 C         137.3159  138.0679  167.1490 C.3     1  UNL1        0.0221
      9 C         140.0402  137.6401  164.7705 C.3     1  UNL1        0.0861
     10 N         138.7718  138.3999  165.0231 N.3     1  UNL1       -0.2939
     11 H         138.0079  137.8230  164.6711 H       1  UNL1        0.1235
     12 O         141.2789  143.3351  169.0985 O.3     1  UNL1       -0.4713
     13 C         142.2302  143.0590  170.2248 C.3     1  UNL1        0.2525
     14 O         139.4029  141.1134  164.7921 O.3     1  UNL1       -0.4536
     15 C         139.4474  142.4146  164.0473 C.ar    1  UNL1        0.1462
     16 C         138.2242  143.2798  163.9751 C.ar    1  UNL1        0.0384
     17 C         138.2688  144.5810  163.2303 C.ar    1  UNL1        0.0154
     18 C         139.5366  145.0171  162.5576 C.ar    1  UNL1        0.0684
     19 CL        139.5812  146.3183  161.8128 Cl      1  UNL1       -0.0814
     20 C         140.7598  144.1520  162.6298 C.ar    1  UNL1        0.0712
     21 CL        142.0276  144.5881  161.9571 Cl      1  UNL1       -0.0813
     22 C         140.7152  142.8507  163.3746 C.ar    1  UNL1        0.0497
@<TRIPOS>BOND
     1     9    10    1
     2    10     7    1
     3     7     8    1
     4     7     1    1
     5     1     2   ar
     6     2     3   ar
     7     3     4   ar
     8     4    12    1
     9    12    13    1
    10     4     5   ar
    11     5     6   ar
    12     6    14    1
    13    14    15    1
    14    15    16   ar
    15    16    17   ar
    16    17    18   ar
    17    18    19    1
    18    18    20   ar
    19    20    21    1
    20    20    22   ar
    21     6     1   ar
    22    22    15   ar
    23    10    11    1
