@<TRIPOS>MOLECULE
*****
 46 51 0 0 0
SMALL
GASTEIGER

@<TRIPOS>ATOM
      1 C         139.3765  141.3666  157.5713 C.ar    1  UNL1        0.1477
      2 C         140.2100  142.0358  158.6237 C.ar    1  UNL1        0.0846
      3 C         141.4236  141.3446  159.1710 C.ar    1  UNL1        0.0174
      4 C         141.8037  139.9843  158.6658 C.ar    1  UNL1       -0.0031
      5 C         140.9701  139.3152  157.6134 C.ar    1  UNL1       -0.0218
      6 C         139.7566  140.0064  157.0662 C.ar    1  UNL1        0.0091
      7 C         138.7952  139.5213  156.0219 C.3     1  UNL1        0.0292
      8 C         138.8100  138.2251  155.2670 C.3     1  UNL1        0.0062
      9 C         139.7898  137.0941  155.3699 C.3     1  UNL1        0.0166
     10 C         140.9968  136.9797  156.2531 C.3     1  UNL1        0.0619
     11 C         141.5221  137.9682  157.2516 C.3     1  UNL1        0.0421
     12 N         141.7824  135.7089  156.1203 N.3     1  UNL1       -0.2713
     13 C         141.3044  134.6243  155.2009 C.3     1  UNL1        0.0896
     14 C         142.0901  133.3533  155.0681 C.3     1  UNL1        0.0897
     15 N         143.3536  133.1670  155.8546 N.3     1  UNL1       -0.2682
     16 C         143.8316  134.2516  156.7741 C.3     1  UNL1        0.0897
     17 C         143.0459  135.5225  156.9068 C.3     1  UNL1        0.0896
     18 C         144.1392  131.8961  155.7218 C.3     1  UNL1        0.1043
     19 C         145.0065  131.4288  156.8530 C.3     1  UNL1        0.1544
     20 O         144.3840  131.0096  158.1517 O.3     1  UNL1       -0.3805
     21 H         143.9672  131.7774  158.5732 H       1  UNL1        0.2105
     22 C         138.3124  143.1096  155.9652 C.3     1  UNL1        0.2525
     23 O         138.1629  142.0578  157.0241 O.3     1  UNL1       -0.4705
     24 N         139.8300  143.3961  159.1289 N.pl3   1  UNL1       -0.2801
     25 H         139.9489  144.1859  158.5534 H       1  UNL1        0.1552
     26 C         139.2687  143.5529  160.5111 C.ar    1  UNL1        0.2219
     27 N         139.5044  144.8210  161.2770 N.ar    1  UNL1       -0.2110
     28 C         138.9432  144.9778  162.6590 C.ar    1  UNL1        0.1160
     29 C         138.1461  143.8666  163.2754 C.ar    1  UNL1        0.1082
     30 CL        137.5848  144.0234  164.6576 Cl      1  UNL1       -0.0777
     31 C         137.9103  142.5985  162.5096 C.ar    1  UNL1        0.1435
     32 N         138.4716  142.4417  161.1275 N.ar    1  UNL1       -0.1979
     33 N         137.1132  141.4873  163.1259 N.pl3   1  UNL1       -0.3181
     34 H         136.1320  141.5524  163.1723 H       1  UNL1        0.1482
     35 C         137.8111  140.2769  163.6715 C.3     1  UNL1        0.0832
     36 C         138.2982  139.1048  162.8721 C.3     1  UNL1        0.0984
     37 C         138.9326  138.1295  163.8188 C.3     1  UNL1        0.0323
     38 C         139.2659  137.8786  165.2596 C.2     1  UNL1       -0.0304
     39 C         138.7789  139.0506  166.0590 C.2     1  UNL1       -0.0294
     40 C         138.1445  140.0259  165.1123 C.3     1  UNL1        0.0404
     41 C         138.2395  139.4566  163.7277 C.3     1  UNL1        0.0109
     42 C         138.1729  138.9374  161.3867 C.2     1  UNL1        0.2208
     43 N         139.2501  138.2313  160.6180 N.am    1  UNL1       -0.3288
     44 O         136.9703  139.4761  160.6700 O.2     1  UNL1       -0.2753
     45 H         140.0394  137.8777  161.0884 H       1  UNL1        0.1449
     46 H         139.1679  138.1214  159.6431 H       1  UNL1        0.1449
@<TRIPOS>BOND
     1    22    23    1
     2    23     1    1
     3     1     2   ar
     4     2    24    1
     5    24    26    1
     6    26    27   ar
     7    27    28   ar
     8    28    29   ar
     9    29    30    1
    10    29    31   ar
    11    31    33    1
    12    35    33    1
    13    35    36    1
    14    36    42    1
    15    42    43   am
    16    42    44    2
    17    36    37    1
    18    37    38    1
    19    38    39    2
    20    40    39    1
    21    40    41    1
    22    31    32   ar
    23     2     3   ar
    24     3     4   ar
    25     4     5   ar
    26     5     6   ar
    27     6     7    1
    28     7     8    1
    29     8     9    1
    30     9    10    1
    31    10    12    1
    32    12    13    1
    33    13    14    1
    34    14    15    1
    35    15    18    1
    36    18    19    1
    37    19    20    1
    38    15    16    1
    39    16    17    1
    40    10    11    1
    41     6     1   ar
    42    17    12    1
    43    32    26   ar
    44    11     5    1
    45    40    35    1
    46    41    37    1
    47    24    25    1
    48    33    34    1
    49    43    45    1
    50    43    46    1
    51    20    21    1
@<TRIPOS>MOLECULE
*****
 46 51 0 0 0
SMALL
GASTEIGER

@<TRIPOS>ATOM
      1 C         140.0539  142.7433  157.9790 C.ar    1  UNL1        0.1477
      2 C         141.1477  142.8322  159.0016 C.ar    1  UNL1        0.0846
      3 C         141.8366  144.1411  159.2512 C.ar    1  UNL1        0.0174
      4 C         141.4316  145.3612  158.4782 C.ar    1  UNL1       -0.0031
      5 C         140.3378  145.2722  157.4555 C.ar    1  UNL1       -0.0218
      6 C         139.6490  143.9634  157.2060 C.ar    1  UNL1        0.0091
      7 C         138.5430  143.6578  156.2398 C.3     1  UNL1        0.0292
      8 C         137.8527  144.5858  155.2846 C.3     1  UNL1        0.0062
      9 C         138.0978  146.0484  155.0597 C.3     1  UNL1        0.0166
     10 C         139.0939  146.9444  155.7344 C.3     1  UNL1        0.0619
     11 C         140.0908  146.5989  156.8006 C.3     1  UNL1        0.0421
     12 N         139.0929  148.3748  155.2832 N.3     1  UNL1       -0.2713
     13 C         138.4883  149.4357  156.1544 C.3     1  UNL1        0.0896
     14 C         138.4873  150.8663  155.7031 C.3     1  UNL1        0.0897
     15 N         139.0910  151.2360  154.3806 N.3     1  UNL1       -0.2682
     16 C         139.6957  150.1751  153.5094 C.3     1  UNL1        0.0897
     17 C         139.6966  148.7445  153.9607 C.3     1  UNL1        0.0896
     18 C         139.0900  152.6664  153.9294 C.3     1  UNL1        0.1043
     19 C         138.3401  153.0620  152.6920 C.3     1  UNL1        0.1544
     20 O         136.9640  153.6483  152.8042 O.3     1  UNL1       -0.3805
     21 H         136.3555  152.9798  153.1561 H       1  UNL1        0.2105
     22 C         138.2821  140.9681  158.6564 C.3     1  UNL1        0.2525
     23 O         139.3651  141.4344  157.7294 O.3     1  UNL1       -0.4705
     24 N         141.5527  141.6122  159.7746 N.pl3   1  UNL1       -0.2801
     25 H         141.5564  140.7306  159.3365 H       1  UNL1        0.1552
     26 C         141.9522  141.7356  161.2152 C.ar    1  UNL1        0.2219
     27 N         143.3902  141.5760  161.6112 N.ar    1  UNL1       -0.2110
     28 C         143.7897  141.6994  163.0517 C.ar    1  UNL1        0.1160
     29 C         142.7511  141.9823  164.0964 C.ar    1  UNL1        0.1082
     30 CL        143.1505  142.1057  165.5369 Cl      1  UNL1       -0.0777
     31 C         141.3130  142.1419  163.7005 C.ar    1  UNL1        0.1435
     32 N         140.9136  142.0185  162.2599 N.ar    1  UNL1       -0.1979
     33 N         140.2745  142.4248  164.7451 N.pl3   1  UNL1       -0.3181
     34 H         140.0815  143.3535  165.0086 H       1  UNL1        0.1482
     35 C         139.5298  141.2927  165.3883 C.3     1  UNL1        0.0832
     36 C         138.4635  140.4588  164.7422 C.3     1  UNL1        0.0984
     37 C         137.9954  139.4464  165.7452 C.3     1  UNL1        0.0323
     38 C         138.1862  138.9495  167.1475 C.2     1  UNL1       -0.0304
     39 C         139.2525  139.7834  167.7937 C.2     1  UNL1       -0.0294
     40 C         139.7207  140.7958  166.7907 C.3     1  UNL1        0.0404
     41 C         138.9437  140.5874  165.5246 C.3     1  UNL1        0.0109
     42 C         137.9546  140.6105  163.3392 C.2     1  UNL1        0.2208
     43 N         138.5384  139.7790  162.2357 N.am    1  UNL1       -0.3288
     44 O         136.8620  141.5937  163.0400 O.2     1  UNL1       -0.2753
     45 H         139.2555  139.1337  162.4321 H       1  UNL1        0.1449
     46 H         138.2044  139.8786  161.3149 H       1  UNL1        0.1449
@<TRIPOS>BOND
     1    22    23    1
     2    23     1    1
     3     1     2   ar
     4     2    24    1
     5    24    26    1
     6    26    27   ar
     7    27    28   ar
     8    28    29   ar
     9    29    30    1
    10    29    31   ar
    11    31    33    1
    12    35    33    1
    13    35    36    1
    14    36    42    1
    15    42    43   am
    16    42    44    2
    17    36    37    1
    18    37    38    1
    19    38    39    2
    20    40    39    1
    21    40    41    1
    22    31    32   ar
    23     2     3   ar
    24     3     4   ar
    25     4     5   ar
    26     5     6   ar
    27     6     7    1
    28     7     8    1
    29     8     9    1
    30     9    10    1
    31    10    12    1
    32    12    13    1
    33    13    14    1
    34    14    15    1
    35    15    18    1
    36    18    19    1
    37    19    20    1
    38    15    16    1
    39    16    17    1
    40    10    11    1
    41     6     1   ar
    42    17    12    1
    43    32    26   ar
    44    11     5    1
    45    40    35    1
    46    41    37    1
    47    24    25    1
    48    33    34    1
    49    43    45    1
    50    43    46    1
    51    20    21    1
@<TRIPOS>MOLECULE
*****
 46 51 0 0 0
SMALL
GASTEIGER

@<TRIPOS>ATOM
      1 C         138.9181  139.5010  160.1237 C.ar    1  UNL1        0.1477
      2 C         140.0287  138.5900  159.6915 C.ar    1  UNL1        0.0846
      3 C         141.0933  138.1891  160.6692 C.ar    1  UNL1        0.0174
      4 C         141.0474  138.6993  162.0791 C.ar    1  UNL1       -0.0031
      5 C         139.9368  139.6103  162.5112 C.ar    1  UNL1       -0.0218
      6 C         138.8722  140.0111  161.5335 C.ar    1  UNL1        0.0091
      7 C         137.6863  140.9025  161.7554 C.3     1  UNL1        0.0292
      8 C         137.2723  141.6132  163.0098 C.3     1  UNL1        0.0062
      9 C         137.9418  141.6080  164.3520 C.3     1  UNL1        0.0166
     10 C         139.1907  140.8909  164.7715 C.3     1  UNL1        0.0619
     11 C         140.0785  140.0018  163.9523 C.3     1  UNL1        0.0421
     12 N         139.6067  141.0890  166.1989 N.3     1  UNL1       -0.2713
     13 C         140.1771  142.4050  166.6381 C.3     1  UNL1        0.0896
     14 C         140.5932  142.6031  168.0657 C.3     1  UNL1        0.0897
     15 N         140.4388  141.4853  169.0540 N.3     1  UNL1       -0.2682
     16 C         139.8684  140.1693  168.6147 C.3     1  UNL1        0.0897
     17 C         139.4523  139.9712  167.1872 C.3     1  UNL1        0.0896
     18 C         140.8548  141.6834  170.4814 C.3     1  UNL1        0.1043
     19 C         142.3046  141.8635  170.8220 C.3     1  UNL1        0.1544
     20 O         142.7998  143.1904  171.3157 O.3     1  UNL1       -0.3805
     21 H         142.7159  143.8500  170.6094 H       1  UNL1        0.2105
     22 C         138.1254  140.9832  158.1427 C.3     1  UNL1        0.2525
     23 O         137.8535  139.9019  159.1460 O.3     1  UNL1       -0.4705
     24 N         140.0747  138.0799  158.2817 N.pl3   1  UNL1       -0.2801
     25 H         139.2853  137.6395  157.8915 H       1  UNL1        0.1552
     26 C         141.3234  138.2408  157.4663 C.ar    1  UNL1        0.2219
     27 N         141.8025  139.6117  157.0906 N.ar    1  UNL1       -0.2110
     28 C         143.0511  139.7727  156.2753 C.ar    1  UNL1        0.1160
     29 C         143.8208  138.5626  155.8355 C.ar    1  UNL1        0.1082
     30 CL        145.0696  138.7235  155.0201 Cl      1  UNL1       -0.0777
     31 C         143.3418  137.1916  156.2111 C.ar    1  UNL1        0.1435
     32 N         142.0931  137.0307  157.0265 N.ar    1  UNL1       -0.1979
     33 N         144.1115  135.9816  155.7714 N.pl3   1  UNL1       -0.3181
     34 H         145.0805  136.0463  155.6101 H       1  UNL1        0.1482
     35 C         143.4048  134.6728  155.5774 C.3     1  UNL1        0.0832
     36 C         143.4088  133.5182  156.5349 C.3     1  UNL1        0.0984
     37 C         142.5764  132.4207  155.9411 C.3     1  UNL1        0.0323
     38 C         141.7416  132.0368  154.7555 C.2     1  UNL1       -0.0304
     39 C         141.7376  133.1914  153.7980 C.2     1  UNL1       -0.0294
     40 C         142.5699  134.2889  154.3918 C.3     1  UNL1        0.0404
     41 C         143.0884  133.8126  155.7164 C.3     1  UNL1        0.0109
     42 C         144.1202  133.4696  157.8546 C.2     1  UNL1        0.2208
     43 N         143.6352  134.3087  158.9995 N.am    1  UNL1       -0.3288
     44 O         145.3167  132.5819  158.0293 O.2     1  UNL1       -0.2753
     45 H         142.8500  134.8913  158.8848 H       1  UNL1        0.1449
     46 H         144.1022  134.2768  159.8656 H       1  UNL1        0.1449
@<TRIPOS>BOND
     1    22    23    1
     2    23     1    1
     3     1     2   ar
     4     2    24    1
     5    24    26    1
     6    26    27   ar
     7    27    28   ar
     8    28    29   ar
     9    29    30    1
    10    29    31   ar
    11    31    33    1
    12    35    33    1
    13    35    36    1
    14    36    42    1
    15    42    43   am
    16    42    44    2
    17    36    37    1
    18    37    38    1
    19    38    39    2
    20    40    39    1
    21    40    41    1
    22    31    32   ar
    23     2     3   ar
    24     3     4   ar
    25     4     5   ar
    26     5     6   ar
    27     6     7    1
    28     7     8    1
    29     8     9    1
    30     9    10    1
    31    10    12    1
    32    12    13    1
    33    13    14    1
    34    14    15    1
    35    15    18    1
    36    18    19    1
    37    19    20    1
    38    15    16    1
    39    16    17    1
    40    10    11    1
    41     6     1   ar
    42    17    12    1
    43    32    26   ar
    44    11     5    1
    45    40    35    1
    46    41    37    1
    47    24    25    1
    48    33    34    1
    49    43    45    1
    50    43    46    1
    51    20    21    1
@<TRIPOS>MOLECULE
*****
 46 51 0 0 0
SMALL
GASTEIGER

@<TRIPOS>ATOM
      1 C         142.6305  138.2576  163.6957 C.ar    1  UNL1        0.1477
      2 C         143.5383  138.8315  164.7429 C.ar    1  UNL1        0.0846
      3 C         144.6304  139.7817  164.3497 C.ar    1  UNL1        0.0174
      4 C         144.8146  140.1580  162.9093 C.ar    1  UNL1       -0.0031
      5 C         143.9067  139.5840  161.8622 C.ar    1  UNL1       -0.0218
      6 C         142.8148  138.6339  162.2554 C.ar    1  UNL1        0.0091
      7 C         141.8072  137.9521  161.3778 C.3     1  UNL1        0.0292
      8 C         141.6429  138.0523  159.8901 C.3     1  UNL1        0.0062
      9 C         142.4455  138.8589  158.9128 C.3     1  UNL1        0.0166
     10 C         143.6107  139.7645  159.1816 C.3     1  UNL1        0.0619
     11 C         144.2610  140.0872  160.4942 C.3     1  UNL1        0.0421
     12 N         144.2040  140.4362  157.9789 N.3     1  UNL1       -0.2713
     13 C         145.0543  141.6605  158.1467 C.3     1  UNL1        0.0896
     14 C         145.6476  142.3322  156.9438 C.3     1  UNL1        0.0897
     15 N         145.3906  141.7797  155.5731 N.3     1  UNL1       -0.2682
     16 C         144.5403  140.5554  155.4053 C.3     1  UNL1        0.0897
     17 C         143.9469  139.8837  156.6082 C.3     1  UNL1        0.0896
     18 C         145.9839  142.4514  154.3704 C.3     1  UNL1        0.1043
     19 C         147.0585  143.4839  154.5417 C.3     1  UNL1        0.1544
     20 O         146.7633  144.9274  154.2605 O.3     1  UNL1       -0.3805
     21 H         146.5780  145.0413  153.3152 H       1  UNL1        0.2105
     22 C         140.2437  137.8358  164.6311 C.3     1  UNL1        0.2525
     23 O         141.5385  137.3073  164.0889 O.3     1  UNL1       -0.4705
     24 N         143.3542  138.4553  166.1832 N.pl3   1  UNL1       -0.2801
     25 H         143.6986  137.5948  166.5151 H       1  UNL1        0.1552
     26 C         142.6452  139.3902  167.1177 C.ar    1  UNL1        0.2219
     27 N         142.7469  139.1884  168.6007 N.ar    1  UNL1       -0.2110
     28 C         142.0380  140.1232  169.5352 C.ar    1  UNL1        0.1160
     29 C         141.2274  141.2600  168.9869 C.ar    1  UNL1        0.1082
     30 CL        140.5185  142.1949  169.9214 Cl      1  UNL1       -0.0777
     31 C         141.1256  141.4619  167.5040 C.ar    1  UNL1        0.1435
     32 N         141.8346  140.5270  166.5694 N.ar    1  UNL1       -0.1979
     33 N         140.3150  142.5986  166.9556 N.pl3   1  UNL1       -0.3181
     34 H         139.4942  142.8855  167.4173 H       1  UNL1        0.1482
     35 C         140.7550  143.2982  165.7039 C.3     1  UNL1        0.0832
     36 C         139.9224  144.2324  164.8768 C.3     1  UNL1        0.0984
     37 C         140.7576  144.6980  163.7211 C.3     1  UNL1        0.0323
     38 C         142.1075  144.5863  163.0766 C.2     1  UNL1       -0.0304
     39 C         142.9401  143.6521  163.9037 C.2     1  UNL1       -0.0294
     40 C         142.1049  143.1864  165.0594 C.3     1  UNL1        0.0404
     41 C         140.7560  143.8329  164.9465 C.3     1  UNL1        0.0109
     42 C         138.5035  144.6310  165.1563 C.2     1  UNL1        0.2208
     43 N         137.3930  144.1024  164.2977 N.am    1  UNL1       -0.3288
     44 O         138.1953  145.5582  166.2944 O.2     1  UNL1       -0.2753
     45 H         137.5953  143.4939  163.5507 H       1  UNL1        0.1449
     46 H         136.4618  144.3640  164.4811 H       1  UNL1        0.1449
@<TRIPOS>BOND
     1    22    23    1
     2    23     1    1
     3     1     2   ar
     4     2    24    1
     5    24    26    1
     6    26    27   ar
     7    27    28   ar
     8    28    29   ar
     9    29    30    1
    10    29    31   ar
    11    31    33    1
    12    35    33    1
    13    35    36    1
    14    36    42    1
    15    42    43   am
    16    42    44    2
    17    36    37    1
    18    37    38    1
    19    38    39    2
    20    40    39    1
    21    40    41    1
    22    31    32   ar
    23     2     3   ar
    24     3     4   ar
    25     4     5   ar
    26     5     6   ar
    27     6     7    1
    28     7     8    1
    29     8     9    1
    30     9    10    1
    31    10    12    1
    32    12    13    1
    33    13    14    1
    34    14    15    1
    35    15    18    1
    36    18    19    1
    37    19    20    1
    38    15    16    1
    39    16    17    1
    40    10    11    1
    41     6     1   ar
    42    17    12    1
    43    32    26   ar
    44    11     5    1
    45    40    35    1
    46    41    37    1
    47    24    25    1
    48    33    34    1
    49    43    45    1
    50    43    46    1
    51    20    21    1
@<TRIPOS>MOLECULE
*****
 46 51 0 0 0
SMALL
GASTEIGER

@<TRIPOS>ATOM
      1 C         143.8552  142.2842  163.3513 C.ar    1  UNL1        0.1477
      2 C         143.2327  142.9977  164.5148 C.ar    1  UNL1        0.0846
      3 C         142.2621  144.1162  164.2765 C.ar    1  UNL1        0.0174
      4 C         141.9139  144.5212  162.8748 C.ar    1  UNL1       -0.0031
      5 C         142.5364  143.8077  161.7114 C.ar    1  UNL1       -0.0218
      6 C         143.5070  142.6893  161.9497 C.ar    1  UNL1        0.0091
      7 C         144.2360  141.8526  160.9404 C.3     1  UNL1        0.0292
      8 C         144.1744  141.9280  159.4435 C.3     1  UNL1        0.0062
      9 C         143.3686  142.8584  158.5864 C.3     1  UNL1        0.0166
     10 C         142.4254  143.9434  159.0142 C.3     1  UNL1        0.0619
     11 C         142.0550  144.3659  160.4050 C.3     1  UNL1        0.0421
     12 N         141.7652  144.7069  157.9046 N.3     1  UNL1       -0.2713
     13 C         142.2830  144.5891  156.5017 C.3     1  UNL1        0.0896
     14 C         141.6227  145.3526  155.3920 C.3     1  UNL1        0.0897
     15 N         140.4449  146.2339  155.6852 N.3     1  UNL1       -0.2682
     16 C         139.9272  146.3517  157.0881 C.3     1  UNL1        0.0897
     17 C         140.5874  145.5882  158.1978 C.3     1  UNL1        0.0896
     18 C         139.7848  146.9973  154.5756 C.3     1  UNL1        0.1043
     19 C         140.0555  148.4633  154.4093 C.3     1  UNL1        0.1544
     20 O         139.4978  149.4456  155.3961 O.3     1  UNL1       -0.3805
     21 H         138.5298  149.4514  155.3347 H       1  UNL1        0.2105
     22 C         144.3215  139.7953  163.9325 C.3     1  UNL1        0.2525
     23 O         144.8258  141.1657  163.5896 O.3     1  UNL1       -0.4705
     24 N         143.5809  142.5927  165.9165 N.pl3   1  UNL1       -0.2801
     25 H         144.5035  142.6963  166.2441 H       1  UNL1        0.1552
     26 C         142.5233  142.0297  166.8190 C.ar    1  UNL1        0.2219
     27 N         142.6756  142.1319  168.3078 N.ar    1  UNL1       -0.2110
     28 C         141.6181  141.5690  169.2104 C.ar    1  UNL1        0.1160
     29 C         140.4080  140.9039  168.6242 C.ar    1  UNL1        0.1082
     30 CL        139.3504  140.3410  169.5267 Cl      1  UNL1       -0.0777
     31 C         140.2556  140.8017  167.1354 C.ar    1  UNL1        0.1435
     32 N         141.3132  141.3647  166.2328 N.ar    1  UNL1       -0.1979
     33 N         139.0457  140.1367  166.5492 N.pl3   1  UNL1       -0.3181
     34 H         138.5614  139.4524  167.0654 H       1  UNL1        0.1482
     35 C         138.5735  140.5142  165.1764 C.3     1  UNL1        0.0832
     36 C         138.4654  139.5937  163.9971 C.3     1  UNL1        0.0984
     37 C         137.9516  140.3891  162.8337 C.3     1  UNL1        0.0323
     38 C         137.5045  141.7534  162.3994 C.2     1  UNL1       -0.0304
     39 C         137.6125  142.6739  163.5787 C.2     1  UNL1       -0.0294
     40 C         138.1264  141.8786  164.7421 C.3     1  UNL1        0.0404
     41 C         138.3359  140.4664  164.2816 C.3     1  UNL1        0.0109
     42 C         138.8106  138.1340  163.9833 C.2     1  UNL1        0.2208
     43 N         139.1922  137.4656  162.6958 N.am    1  UNL1       -0.3288
     44 O         138.7742  137.3427  165.2571 O.2     1  UNL1       -0.2753
     45 H         139.2161  137.9850  161.8598 H       1  UNL1        0.1449
     46 H         139.4188  136.5076  162.6868 H       1  UNL1        0.1449
@<TRIPOS>BOND
     1    22    23    1
     2    23     1    1
     3     1     2   ar
     4     2    24    1
     5    24    26    1
     6    26    27   ar
     7    27    28   ar
     8    28    29   ar
     9    29    30    1
    10    29    31   ar
    11    31    33    1
    12    35    33    1
    13    35    36    1
    14    36    42    1
    15    42    43   am
    16    42    44    2
    17    36    37    1
    18    37    38    1
    19    38    39    2
    20    40    39    1
    21    40    41    1
    22    31    32   ar
    23     2     3   ar
    24     3     4   ar
    25     4     5   ar
    26     5     6   ar
    27     6     7    1
    28     7     8    1
    29     8     9    1
    30     9    10    1
    31    10    12    1
    32    12    13    1
    33    13    14    1
    34    14    15    1
    35    15    18    1
    36    18    19    1
    37    19    20    1
    38    15    16    1
    39    16    17    1
    40    10    11    1
    41     6     1   ar
    42    17    12    1
    43    32    26   ar
    44    11     5    1
    45    40    35    1
    46    41    37    1
    47    24    25    1
    48    33    34    1
    49    43    45    1
    50    43    46    1
    51    20    21    1
@<TRIPOS>MOLECULE
*****
 46 51 0 0 0
SMALL
GASTEIGER

@<TRIPOS>ATOM
      1 C         144.0786  142.7380  162.5886 C.ar    1  UNL1        0.1477
      2 C         144.3107  141.9447  163.8404 C.ar    1  UNL1        0.0846
      3 C         144.3510  140.4463  163.7820 C.ar    1  UNL1        0.0174
      4 C         144.1592  139.7414  162.4719 C.ar    1  UNL1       -0.0031
      5 C         143.9271  140.5348  161.2202 C.ar    1  UNL1       -0.0218
      6 C         143.8868  142.0330  161.2786 C.ar    1  UNL1        0.0091
      7 C         143.6703  143.0072  160.1587 C.3     1  UNL1        0.0292
      8 C         143.4407  142.7235  158.7037 C.3     1  UNL1        0.0062
      9 C         143.3708  141.3958  158.0095 C.3     1  UNL1        0.0166
     10 C         143.5133  140.0237  158.5985 C.3     1  UNL1        0.0619
     11 C         143.7608  139.6405  160.0275 C.3     1  UNL1        0.0421
     12 N         143.3922  138.8841  157.6308 N.3     1  UNL1       -0.2713
     13 C         143.8937  139.0371  156.2253 C.3     1  UNL1        0.0896
     14 C         143.7726  137.8974  155.2575 C.3     1  UNL1        0.0897
     15 N         143.1500  136.6048  155.6951 N.3     1  UNL1       -0.2682
     16 C         142.6485  136.4518  157.1005 C.3     1  UNL1        0.0897
     17 C         142.7696  137.5915  158.0683 C.3     1  UNL1        0.0896
     18 C         143.0289  135.4653  154.7273 C.3     1  UNL1        0.1043
     19 C         143.2316  134.0558  155.1991 C.3     1  UNL1        0.1544
     20 O         144.4167  133.7138  156.0526 O.3     1  UNL1       -0.3805
     21 H         145.2305  133.8313  155.5380 H       1  UNL1        0.2105
     22 C         142.8032  144.9350  163.1332 C.3     1  UNL1        0.2525
     23 O         144.0383  144.2364  162.6470 O.3     1  UNL1       -0.4705
     24 N         144.5025  142.6496  165.1504 N.pl3   1  UNL1       -0.2801
     25 H         145.3317  143.1516  165.3225 H       1  UNL1        0.1552
     26 C         143.4309  142.5895  166.1983 C.ar    1  UNL1        0.2219
     27 N         143.8030  142.5645  167.6512 N.ar    1  UNL1       -0.2110
     28 C         142.7315  142.5045  168.6991 C.ar    1  UNL1        0.1160
     29 C         141.2876  142.4693  168.2941 C.ar    1  UNL1        0.1082
     30 CL        140.2160  142.4092  169.3419 Cl      1  UNL1       -0.0777
     31 C         140.9153  142.4943  166.8412 C.ar    1  UNL1        0.1435
     32 N         141.9869  142.5543  165.7933 N.ar    1  UNL1       -0.1979
     33 N         139.4715  142.4591  166.4361 N.pl3   1  UNL1       -0.3181
     34 H         138.8219  143.0531  166.8772 H       1  UNL1        0.1482
     35 C         139.0173  141.5191  165.3591 C.3     1  UNL1        0.0832
     36 C         138.2669  141.8981  164.1168 C.3     1  UNL1        0.0984
     37 C         138.0196  140.6483  163.3252 C.3     1  UNL1        0.0323
     38 C         138.2361  139.1642  163.3013 C.2     1  UNL1       -0.0304
     39 C         138.9865  138.7852  164.5435 C.2     1  UNL1       -0.0294
     40 C         139.2338  140.0350  165.3352 C.3     1  UNL1        0.0404
     41 C         138.6362  141.1865  164.5822 C.3     1  UNL1        0.0109
     42 C         137.8389  143.2838  163.7335 C.2     1  UNL1        0.2208
     43 N         137.6410  143.6349  162.2886 N.am    1  UNL1       -0.3288
     44 O         137.6087  144.3183  164.7950 O.2     1  UNL1       -0.2753
     45 H         137.7921  142.9559  161.5919 H       1  UNL1        0.1449
     46 H         137.3601  144.5443  162.0370 H       1  UNL1        0.1449
@<TRIPOS>BOND
     1    22    23    1
     2    23     1    1
     3     1     2   ar
     4     2    24    1
     5    24    26    1
     6    26    27   ar
     7    27    28   ar
     8    28    29   ar
     9    29    30    1
    10    29    31   ar
    11    31    33    1
    12    35    33    1
    13    35    36    1
    14    36    42    1
    15    42    43   am
    16    42    44    2
    17    36    37    1
    18    37    38    1
    19    38    39    2
    20    40    39    1
    21    40    41    1
    22    31    32   ar
    23     2     3   ar
    24     3     4   ar
    25     4     5   ar
    26     5     6   ar
    27     6     7    1
    28     7     8    1
    29     8     9    1
    30     9    10    1
    31    10    12    1
    32    12    13    1
    33    13    14    1
    34    14    15    1
    35    15    18    1
    36    18    19    1
    37    19    20    1
    38    15    16    1
    39    16    17    1
    40    10    11    1
    41     6     1   ar
    42    17    12    1
    43    32    26   ar
    44    11     5    1
    45    40    35    1
    46    41    37    1
    47    24    25    1
    48    33    34    1
    49    43    45    1
    50    43    46    1
    51    20    21    1
@<TRIPOS>MOLECULE
*****
 46 51 0 0 0
SMALL
GASTEIGER

@<TRIPOS>ATOM
      1 C         143.8315  140.8660  160.4863 C.ar    1  UNL1        0.1477
      2 C         143.8975  140.4836  161.9352 C.ar    1  UNL1        0.0846
      3 C         143.6811  139.0569  162.3449 C.ar    1  UNL1        0.0174
      4 C         143.3986  138.0127  161.3057 C.ar    1  UNL1       -0.0031
      5 C         143.3326  138.3953  159.8567 C.ar    1  UNL1       -0.0218
      6 C         143.5491  139.8219  159.4471 C.ar    1  UNL1        0.0091
      7 C         143.5267  140.4128  158.0685 C.3     1  UNL1        0.0292
      8 C         143.2824  139.7228  156.7591 C.3     1  UNL1        0.0062
      9 C         143.0001  138.2718  156.5050 C.3     1  UNL1        0.0166
     10 C         142.8924  137.1521  157.4974 C.3     1  UNL1        0.0619
     11 C         143.0404  137.2071  158.9891 C.3     1  UNL1        0.0421
     12 N         142.5977  135.7986  156.9221 N.3     1  UNL1       -0.2713
     13 C         143.3032  134.5871  157.4556 C.3     1  UNL1        0.0896
     14 C         143.0085  133.2335  156.8802 C.3     1  UNL1        0.0897
     15 N         142.0084  133.0914  155.7713 N.3     1  UNL1       -0.2682
     16 C         141.3030  134.3029  155.2377 C.3     1  UNL1        0.0897
     17 C         141.5977  135.6566  155.8132 C.3     1  UNL1        0.0896
     18 C         141.7138  131.7379  155.1960 C.3     1  UNL1        0.1043
     19 C         140.3012  131.3532  154.8689 C.3     1  UNL1        0.1544
     20 O         139.9547  130.8724  153.4910 O.3     1  UNL1       -0.3805
     21 H         140.0773  131.5953  152.8560 H       1  UNL1        0.2105
     22 C         142.8861  143.2392  160.0128 C.3     1  UNL1        0.2525
     23 O         144.0480  142.2927  160.0766 O.3     1  UNL1       -0.4705
     24 N         144.1800  141.5276  162.9745 N.pl3   1  UNL1       -0.2801
     25 H         145.0962  141.8673  163.0948 H       1  UNL1        0.1552
     26 C         143.0664  142.0543  163.8304 C.ar    1  UNL1        0.2219
     27 N         142.2997  143.2696  163.3998 N.ar    1  UNL1       -0.2110
     28 C         141.1862  143.7962  164.2557 C.ar    1  UNL1        0.1160
     29 C         140.8393  143.1076  165.5423 C.ar    1  UNL1        0.1082
     30 CL        139.7257  143.6342  166.3983 Cl      1  UNL1       -0.0777
     31 C         141.6059  141.8923  165.9731 C.ar    1  UNL1        0.1435
     32 N         142.7194  141.3657  165.1171 N.ar    1  UNL1       -0.1979
     33 N         141.2590  141.2036  167.2597 N.pl3   1  UNL1       -0.3181
     34 H         141.8282  141.3275  168.0533 H       1  UNL1        0.1482
     35 C         140.0448  140.3264  167.3371 C.3     1  UNL1        0.0832
     36 C         139.2792  139.9885  168.5820 C.3     1  UNL1        0.0984
     37 C         138.1442  139.0862  168.1976 C.3     1  UNL1        0.0323
     38 C         137.4825  138.3927  167.0438 C.2     1  UNL1       -0.0304
     39 C         138.2481  138.7306  165.7990 C.2     1  UNL1       -0.0294
     40 C         139.3830  139.6329  166.1834 C.3     1  UNL1        0.0404
     41 C         139.3188  139.8526  167.6659 C.3     1  UNL1        0.0109
     42 C         139.5934  140.4685  169.9680 C.2     1  UNL1        0.2208
     43 N         140.2313  139.5387  170.9571 N.am    1  UNL1       -0.3288
     44 O         139.2695  141.8784  170.3647 O.2     1  UNL1       -0.2753
     45 H         140.4439  138.6134  170.6967 H       1  UNL1        0.1449
     46 H         140.4375  139.8538  171.8668 H       1  UNL1        0.1449
@<TRIPOS>BOND
     1    22    23    1
     2    23     1    1
     3     1     2   ar
     4     2    24    1
     5    24    26    1
     6    26    27   ar
     7    27    28   ar
     8    28    29   ar
     9    29    30    1
    10    29    31   ar
    11    31    33    1
    12    35    33    1
    13    35    36    1
    14    36    42    1
    15    42    43   am
    16    42    44    2
    17    36    37    1
    18    37    38    1
    19    38    39    2
    20    40    39    1
    21    40    41    1
    22    31    32   ar
    23     2     3   ar
    24     3     4   ar
    25     4     5   ar
    26     5     6   ar
    27     6     7    1
    28     7     8    1
    29     8     9    1
    30     9    10    1
    31    10    12    1
    32    12    13    1
    33    13    14    1
    34    14    15    1
    35    15    18    1
    36    18    19    1
    37    19    20    1
    38    15    16    1
    39    16    17    1
    40    10    11    1
    41     6     1   ar
    42    17    12    1
    43    32    26   ar
    44    11     5    1
    45    40    35    1
    46    41    37    1
    47    24    25    1
    48    33    34    1
    49    43    45    1
    50    43    46    1
    51    20    21    1
@<TRIPOS>MOLECULE
*****
 46 51 0 0 0
SMALL
GASTEIGER

@<TRIPOS>ATOM
      1 C         143.5618  140.9911  160.1606 C.ar    1  UNL1        0.1477
      2 C         143.5711  140.6965  161.6314 C.ar    1  UNL1        0.0846
      3 C         143.3621  139.2925  162.1165 C.ar    1  UNL1        0.0174
      4 C         143.1439  138.1831  161.1307 C.ar    1  UNL1       -0.0031
      5 C         143.1346  138.4778  159.6599 C.ar    1  UNL1       -0.0218
      6 C         143.3436  139.8816  159.1750 C.ar    1  UNL1        0.0091
      7 C         143.3712  140.3893  157.7637 C.3     1  UNL1        0.0292
      8 C         143.1967  139.6182  156.4889 C.3     1  UNL1        0.0062
      9 C         142.9514  138.1492  156.3106 C.3     1  UNL1        0.0166
     10 C         142.8201  137.0884  157.3629 C.3     1  UNL1        0.0619
     11 C         142.9017  137.2346  158.8535 C.3     1  UNL1        0.0421
     12 N         142.5749  135.6975  156.8578 N.3     1  UNL1       -0.2713
     13 C         141.5911  135.4645  155.7497 C.3     1  UNL1        0.0896
     14 C         141.3458  134.0734  155.2447 C.3     1  UNL1        0.0897
     15 N         142.0844  132.9155  155.8477 N.3     1  UNL1       -0.2682
     16 C         143.0682  133.1485  156.9558 C.3     1  UNL1        0.0897
     17 C         143.3134  134.5395  157.4609 C.3     1  UNL1        0.0896
     18 C         141.8391  131.5246  155.3426 C.3     1  UNL1        0.1043
     19 C         140.5691  131.2053  154.6111 C.3     1  UNL1        0.1544
     20 O         139.8623  129.9073  154.8669 O.3     1  UNL1       -0.3805
     21 H         140.4155  129.1719  154.5601 H       1  UNL1        0.2105
     22 C         142.6062  143.3351  159.5756 C.3     1  UNL1        0.2525
     23 O         143.7708  142.3950  159.6756 O.3     1  UNL1       -0.4705
     24 N         143.7893  141.8058  162.6172 N.pl3   1  UNL1       -0.2801
     25 H         144.7002  142.0215  162.9219 H       1  UNL1        0.1552
     26 C         142.6194  142.5866  163.1387 C.ar    1  UNL1        0.2219
     27 N         142.7859  144.0312  163.5069 N.ar    1  UNL1       -0.2110
     28 C         141.6161  144.8119  164.0284 C.ar    1  UNL1        0.1160
     29 C         140.2797  144.1481  164.1816 C.ar    1  UNL1        0.1082
     30 CL        139.1099  144.9288  164.7031 Cl      1  UNL1       -0.0777
     31 C         140.1132  142.7035  163.8134 C.ar    1  UNL1        0.1435
     32 N         141.2830  141.9228  163.2919 N.ar    1  UNL1       -0.1979
     33 N         138.7768  142.0397  163.9666 N.pl3   1  UNL1       -0.3181
     34 H         137.9511  142.5627  163.8492 H       1  UNL1        0.1482
     35 C         138.6986  140.5790  164.2988 C.3     1  UNL1        0.0832
     36 C         138.6740  139.4504  163.3111 C.3     1  UNL1        0.0984
     37 C         138.5915  138.1643  164.0788 C.3     1  UNL1        0.0323
     38 C         138.5241  137.5759  165.4570 C.2     1  UNL1       -0.0304
     39 C         138.5488  138.7046  166.4446 C.2     1  UNL1       -0.0294
     40 C         138.6313  139.9906  165.6769 C.3     1  UNL1        0.0404
     41 C         138.6577  139.6567  164.2147 C.3     1  UNL1        0.0109
     42 C         138.7232  139.5841  161.8179 C.2     1  UNL1        0.2208
     43 N         140.0135  139.9358  161.1385 N.am    1  UNL1       -0.3288
     44 O         137.4822  139.3663  161.0040 O.2     1  UNL1       -0.2753
     45 H         140.8281  140.0787  161.6727 H       1  UNL1        0.1449
     46 H         140.0459  140.0236  160.1585 H       1  UNL1        0.1449
@<TRIPOS>BOND
     1    22    23    1
     2    23     1    1
     3     1     2   ar
     4     2    24    1
     5    24    26    1
     6    26    27   ar
     7    27    28   ar
     8    28    29   ar
     9    29    30    1
    10    29    31   ar
    11    31    33    1
    12    35    33    1
    13    35    36    1
    14    36    42    1
    15    42    43   am
    16    42    44    2
    17    36    37    1
    18    37    38    1
    19    38    39    2
    20    40    39    1
    21    40    41    1
    22    31    32   ar
    23     2     3   ar
    24     3     4   ar
    25     4     5   ar
    26     5     6   ar
    27     6     7    1
    28     7     8    1
    29     8     9    1
    30     9    10    1
    31    10    12    1
    32    12    13    1
    33    13    14    1
    34    14    15    1
    35    15    18    1
    36    18    19    1
    37    19    20    1
    38    15    16    1
    39    16    17    1
    40    10    11    1
    41     6     1   ar
    42    17    12    1
    43    32    26   ar
    44    11     5    1
    45    40    35    1
    46    41    37    1
    47    24    25    1
    48    33    34    1
    49    43    45    1
    50    43    46    1
    51    20    21    1
@<TRIPOS>MOLECULE
*****
 46 51 0 0 0
SMALL
GASTEIGER

@<TRIPOS>ATOM
      1 C         141.8452  138.5727  163.2537 C.ar    1  UNL1        0.1477
      2 C         142.7748  138.9717  164.3613 C.ar    1  UNL1        0.0846
      3 C         144.0577  139.6817  164.0446 C.ar    1  UNL1        0.0174
      4 C         144.4108  139.9928  162.6203 C.ar    1  UNL1       -0.0031
      5 C         143.4811  139.5938  161.5127 C.ar    1  UNL1       -0.0218
      6 C         142.1984  138.8838  161.8295 C.ar    1  UNL1        0.0091
      7 C         141.1383  138.4014  160.8841 C.3     1  UNL1        0.0292
      8 C         141.0994  138.5100  159.3885 C.3     1  UNL1        0.0062
      9 C         142.1107  139.1277  158.4690 C.3     1  UNL1        0.0166
     10 C         143.4109  139.7894  158.8178 C.3     1  UNL1        0.0619
     11 C         144.0208  139.9969  160.1724 C.3     1  UNL1        0.0421
     12 N         144.2062  140.3129  157.6589 N.3     1  UNL1       -0.2713
     13 C         144.1194  139.6362  156.3229 C.3     1  UNL1        0.0896
     14 C         144.9148  140.1598  155.1639 C.3     1  UNL1        0.0897
     15 N         145.7971  141.3599  155.3408 N.3     1  UNL1       -0.2682
     16 C         145.8840  142.0365  156.6768 C.3     1  UNL1        0.0897
     17 C         145.0885  141.5130  157.8358 C.3     1  UNL1        0.0896
     18 C         146.5925  141.8834  154.1819 C.3     1  UNL1        0.1043
     19 C         147.4280  143.1188  154.3425 C.3     1  UNL1        0.1544
     20 O         146.7719  144.4668  154.3906 O.3     1  UNL1       -0.3805
     21 H         146.3628  144.6581  153.5322 H       1  UNL1        0.2105
     22 C         139.3405  138.6505  163.9393 C.3     1  UNL1        0.2525
     23 O         140.5624  137.8627  163.5704 O.3     1  UNL1       -0.4705
     24 N         142.4217  138.6606  165.7855 N.pl3   1  UNL1       -0.2801
     25 H         142.5329  137.7457  166.1317 H       1  UNL1        0.1552
     26 C         141.8992  139.7436  166.6823 C.ar    1  UNL1        0.2219
     27 N         142.0649  139.6314  168.1690 N.ar    1  UNL1       -0.2110
     28 C         141.5424  140.7142  169.0657 C.ar    1  UNL1        0.1160
     29 C         140.8542  141.9095  168.4759 C.ar    1  UNL1        0.1082
     30 CL        140.3317  142.9924  169.3727 Cl      1  UNL1       -0.0777
     31 C         140.6885  142.0218  166.9893 C.ar    1  UNL1        0.1435
     32 N         141.2110  140.9388  166.0925 N.ar    1  UNL1       -0.1979
     33 N         140.0004  143.2169  166.3994 N.pl3   1  UNL1       -0.3181
     34 H         139.9007  144.0396  166.9309 H       1  UNL1        0.1482
     35 C         139.4641  143.1587  164.9998 C.3     1  UNL1        0.0832
     36 C         140.1075  143.7560  163.7835 C.3     1  UNL1        0.0984
     37 C         139.2313  143.4594  162.6027 C.3     1  UNL1        0.0323
     38 C         137.9575  142.7937  162.1736 C.2     1  UNL1       -0.0304
     39 C         137.3141  142.1964  163.3899 C.2     1  UNL1       -0.0294
     40 C         138.1903  142.4930  164.5707 C.3     1  UNL1        0.0404
     41 C         139.3752  143.2736  164.0842 C.3     1  UNL1        0.0109
     42 C         141.4002  144.5164  163.7533 C.2     1  UNL1        0.2208
     43 N         141.4043  145.9751  163.4036 N.am    1  UNL1       -0.3288
     44 O         142.6887  143.8181  164.0729 O.2     1  UNL1       -0.2753
     45 H         140.5586  146.4334  163.1939 H       1  UNL1        0.1449
     46 H         142.2527  146.4741  163.3838 H       1  UNL1        0.1449
@<TRIPOS>BOND
     1    22    23    1
     2    23     1    1
     3     1     2   ar
     4     2    24    1
     5    24    26    1
     6    26    27   ar
     7    27    28   ar
     8    28    29   ar
     9    29    30    1
    10    29    31   ar
    11    31    33    1
    12    35    33    1
    13    35    36    1
    14    36    42    1
    15    42    43   am
    16    42    44    2
    17    36    37    1
    18    37    38    1
    19    38    39    2
    20    40    39    1
    21    40    41    1
    22    31    32   ar
    23     2     3   ar
    24     3     4   ar
    25     4     5   ar
    26     5     6   ar
    27     6     7    1
    28     7     8    1
    29     8     9    1
    30     9    10    1
    31    10    12    1
    32    12    13    1
    33    13    14    1
    34    14    15    1
    35    15    18    1
    36    18    19    1
    37    19    20    1
    38    15    16    1
    39    16    17    1
    40    10    11    1
    41     6     1   ar
    42    17    12    1
    43    32    26   ar
    44    11     5    1
    45    40    35    1
    46    41    37    1
    47    24    25    1
    48    33    34    1
    49    43    45    1
    50    43    46    1
    51    20    21    1
