@<TRIPOS>MOLECULE
*****
 51 55 0 0 0
SMALL
GASTEIGER

@<TRIPOS>ATOM
      1 N         142.9163  143.6473  159.9353 N.am    1  UNL1       -0.2935
      2 C         142.2464  142.5228  159.2028 C.2     1  UNL1        0.2639
      3 O         140.9027  142.0303  159.6520 O.2     1  UNL1       -0.2685
      4 H         143.7983  143.9705  159.6405 H       1  UNL1        0.1502
      5 C         142.9203  141.8906  158.0211 C.ar    1  UNL1        0.1356
      6 C         142.7537  140.4231  157.7591 C.ar    1  UNL1        0.0383
      7 C         143.4275  139.7910  156.5775 C.ar    1  UNL1        0.0510
      8 C         144.2680  140.6263  155.6579 C.ar    1  UNL1        0.0337
      9 C         144.4346  142.0938  155.9199 C.ar    1  UNL1        0.0826
     10 N         143.7608  142.7260  157.1015 N.ar    1  UNL1       -0.2407
     11 N         143.2609  138.3234  156.3155 N.pl3   1  UNL1       -0.3074
     12 C         142.0531  137.6013  156.8347 C.3     1  UNL1        0.0913
     13 C         141.8864  136.1338  156.5727 C.3     1  UNL1        0.0305
     14 C         142.9276  135.3884  155.7915 C.3     1  UNL1        0.0801
     15 C         144.1354  136.1106  155.2723 C.3     1  UNL1        0.0305
     16 C         144.3020  137.5781  155.5343 C.3     1  UNL1        0.0913
     17 C         142.7609  133.9209  155.5295 C.2     1  UNL1        0.2253
     18 O         141.8299  133.4526  154.4507 O.2     1  UNL1       -0.2749
     19 N         143.5253  132.9217  156.3463 N.am    1  UNL1       -0.2795
     20 C         143.4619  131.4301  156.2002 C.3     1  UNL1        0.0935
     21 C         144.3847  130.8251  157.2163 C.3     1  UNL1        0.0233
     22 C         145.0185  131.9428  157.9905 C.3     1  UNL1        0.0233
     23 C         144.4874  133.2385  157.4528 C.3     1  UNL1        0.0935
     24 C         145.2752  142.9292  155.0002 C.ar    1  UNL1        0.0177
     25 C         146.7665  142.7688  154.9943 C.ar    1  UNL1        0.0015
     26 C         147.6070  143.6042  154.0746 C.ar    1  UNL1        0.0000
     27 C         146.9560  144.5998  153.1608 C.ar    1  UNL1        0.0000
     28 C         145.4647  144.7602  153.1668 C.ar    1  UNL1        0.0000
     29 C         144.6242  143.9248  154.0864 C.ar    1  UNL1        0.0015
     30 C         142.2425  144.2795  161.1170 C.3     1  UNL1        0.1494
     31 C         141.0534  139.8750  166.2586 C.2     1  UNL1        0.4050
     32 O         139.9839  138.9098  165.8409 O.2     1  UNL1       -0.2262
     33 N         141.5051  140.9489  165.3139 N.am    1  UNL1       -0.2425
     34 C         142.5746  141.9141  165.7316 C.3     1  UNL1        0.1182
     35 C         143.0263  142.9881  164.7868 C.3     1  UNL1        0.1151
     36 N         142.4085  143.0968  163.4243 N.am    1  UNL1       -0.2747
     37 C         142.8602  144.1707  162.4795 C.2     1  UNL1        0.2436
     38 O         143.9297  145.1359  162.8973 O.2     1  UNL1       -0.2731
     39 C         141.3390  142.1316  163.0066 C.3     1  UNL1        0.1151
     40 C         140.8873  141.0576  163.9513 C.3     1  UNL1        0.1182
     41 O         141.6712  139.7662  167.6211 O.3     1  UNL1       -0.4345
     42 C         140.8526  140.0659  168.8419 C.3     1  UNL1        0.2101
     43 C         140.0836  141.3507  168.9323 C.3     1  UNL1        0.0475
     44 C         140.8045  142.6636  168.8516 C.3     1  UNL1        0.0038
     45 C         143.1481  142.7289  169.9711 C.3     1  UNL1        0.0000
     46 C         141.6949  143.1007  169.9767 C.3     1  UNL1        0.0001
     47 C         140.9508  145.0204  160.9361 C.3     1  UNL1        0.0349
     48 C         140.3135  145.7130  162.1041 C.3     1  UNL1        0.0439
     49 C         139.2135  145.0373  162.8678 C.2     1  UNL1        0.0504
     50 O         139.2449  145.0161  164.3674 O.co2   1  UNL1       -0.5492
     51 O         138.0820  144.3829  162.1320 O.co2   1  UNL1       -0.5492
@<TRIPOS>UNITY_ATOM_ATTR
50 1
charge -1
@<TRIPOS>BOND
     1    45    46    1
     2    46    44    1
     3    44    43    1
     4    43    42    1
     5    42    41    1
     6    41    31    1
     7    31    32    2
     8    31    33   am
     9    33    34    1
    10    34    35    1
    11    35    36    1
    12    36    37   am
    13    37    38    2
    14    37    30    1
    15    30    47    1
    16    47    48    1
    17    48    49    1
    18    49    50   ar
    19    49    51   ar
    20    30     1    1
    21     1     2   am
    22     2     3    2
    23     2     5    1
    24     5     6   ar
    25     6     7   ar
    26     7    11    1
    27    11    12    1
    28    12    13    1
    29    13    14    1
    30    14    17    1
    31    17    18    2
    32    17    19   am
    33    19    20    1
    34    20    21    1
    35    21    22    1
    36    22    23    1
    37    14    15    1
    38    15    16    1
    39     7     8   ar
    40     8     9   ar
    41     9    24    1
    42    24    25   ar
    43    25    26   ar
    44    26    27   ar
    45    27    28   ar
    46    28    29   ar
    47     9    10   ar
    48    36    39    1
    49    39    40    1
    50    40    33    1
    51    10     5   ar
    52    16    11    1
    53    29    24   ar
    54    23    19    1
    55     1     4    1
@<TRIPOS>MOLECULE
*****
 51 55 0 0 0
SMALL
GASTEIGER

@<TRIPOS>ATOM
      1 N         141.3603  142.7513  158.9116 N.am    1  UNL1       -0.2935
      2 C         142.8509  142.5954  158.9708 C.2     1  UNL1        0.2639
      3 O         143.6307  143.2526  160.0708 O.2     1  UNL1       -0.2685
      4 H         140.8485  142.3199  158.1897 H       1  UNL1        0.1502
      5 C         143.5619  141.7822  157.9299 C.ar    1  UNL1        0.1356
      6 C         143.2130  140.3356  157.7409 C.ar    1  UNL1        0.0383
      7 C         143.9239  139.5225  156.7001 C.ar    1  UNL1        0.0510
      8 C         144.9838  140.1559  155.8483 C.ar    1  UNL1        0.0337
      9 C         145.3327  141.6024  156.0374 C.ar    1  UNL1        0.0826
     10 N         144.6218  142.4156  157.0782 N.ar    1  UNL1       -0.2407
     11 N         143.5750  138.0759  156.5110 N.pl3   1  UNL1       -0.3074
     12 C         142.5799  137.4193  157.4212 C.3     1  UNL1        0.0913
     13 C         142.2310  135.9727  157.2322 C.3     1  UNL1        0.0305
     14 C         142.8771  135.1828  156.1329 C.3     1  UNL1        0.0801
     15 C         143.8722  135.8395  155.2227 C.3     1  UNL1        0.0305
     16 C         144.2212  137.2860  155.4117 C.3     1  UNL1        0.0913
     17 C         142.5282  133.7363  155.9438 C.2     1  UNL1        0.2253
     18 O         141.3653  133.3523  155.0778 O.2     1  UNL1       -0.2749
     19 N         143.3422  132.6737  156.6208 N.am    1  UNL1       -0.2795
     20 C         143.1145  131.1941  156.5259 C.3     1  UNL1        0.0935
     21 C         144.1585  130.5101  157.3581 C.3     1  UNL1        0.0233
     22 C         145.0314  131.5671  157.9673 C.3     1  UNL1        0.0233
     23 C         144.5269  132.9042  157.5117 C.3     1  UNL1        0.0935
     24 C         146.3926  142.2358  155.1856 C.ar    1  UNL1        0.0177
     25 C         147.7985  141.7147  155.2268 C.ar    1  UNL1        0.0015
     26 C         148.8584  142.3481  154.3751 C.ar    1  UNL1        0.0000
     27 C         148.5122  143.5025  153.4820 C.ar    1  UNL1        0.0000
     28 C         147.1063  144.0236  153.4408 C.ar    1  UNL1        0.0000
     29 C         146.0465  143.3902  154.2926 C.ar    1  UNL1        0.0015
     30 C         140.6493  143.5644  159.9525 C.3     1  UNL1        0.1494
     31 C         139.9878  140.1707  165.8934 C.2     1  UNL1        0.4050
     32 O         141.3403  140.0150  166.5232 O.2     1  UNL1       -0.2262
     33 N         139.8496  140.8806  164.5793 N.am    1  UNL1       -0.2425
     34 C         138.4972  141.0363  163.9496 C.3     1  UNL1        0.1182
     35 C         138.3590  141.7462  162.6354 C.3     1  UNL1        0.1151
     36 N         139.5732  142.3004  161.9510 N.am    1  UNL1       -0.2747
     37 C         139.4350  143.0103  160.6369 C.2     1  UNL1        0.2436
     38 O         138.0826  143.1660  160.0072 O.2     1  UNL1       -0.2731
     39 C         140.9257  142.1447  162.5808 C.3     1  UNL1        0.1151
     40 C         141.0639  141.4348  163.8949 C.3     1  UNL1        0.1182
     41 O         138.7736  139.6165  166.5778 O.3     1  UNL1       -0.4345
     42 C         138.2222  138.2841  166.1645 C.3     1  UNL1        0.2101
     43 C         139.0047  137.4043  165.2351 C.3     1  UNL1        0.0475
     44 C         138.8135  137.5222  163.7521 C.3     1  UNL1        0.0038
     45 C         139.8676  138.3614  161.5307 C.3     1  UNL1        0.0000
     46 C         140.0045  137.6632  162.8512 C.3     1  UNL1        0.0001
     47 C         141.1526  144.9318  160.3089 C.3     1  UNL1        0.0349
     48 C         140.3789  145.7900  161.2654 C.3     1  UNL1        0.0439
     49 C         140.5208  145.5809  162.7440 C.2     1  UNL1        0.0504
     50 O         141.8698  145.6898  163.3908 O.co2   1  UNL1       -0.5492
     51 O         139.3137  145.2629  163.5757 O.co2   1  UNL1       -0.5492
@<TRIPOS>UNITY_ATOM_ATTR
50 1
charge -1
@<TRIPOS>BOND
     1    45    46    1
     2    46    44    1
     3    44    43    1
     4    43    42    1
     5    42    41    1
     6    41    31    1
     7    31    32    2
     8    31    33   am
     9    33    34    1
    10    34    35    1
    11    35    36    1
    12    36    37   am
    13    37    38    2
    14    37    30    1
    15    30    47    1
    16    47    48    1
    17    48    49    1
    18    49    50   ar
    19    49    51   ar
    20    30     1    1
    21     1     2   am
    22     2     3    2
    23     2     5    1
    24     5     6   ar
    25     6     7   ar
    26     7    11    1
    27    11    12    1
    28    12    13    1
    29    13    14    1
    30    14    17    1
    31    17    18    2
    32    17    19   am
    33    19    20    1
    34    20    21    1
    35    21    22    1
    36    22    23    1
    37    14    15    1
    38    15    16    1
    39     7     8   ar
    40     8     9   ar
    41     9    24    1
    42    24    25   ar
    43    25    26   ar
    44    26    27   ar
    45    27    28   ar
    46    28    29   ar
    47     9    10   ar
    48    36    39    1
    49    39    40    1
    50    40    33    1
    51    10     5   ar
    52    16    11    1
    53    29    24   ar
    54    23    19    1
    55     1     4    1
@<TRIPOS>MOLECULE
*****
 51 55 0 0 0
SMALL
GASTEIGER

@<TRIPOS>ATOM
      1 N         141.3488  142.8954  158.4096 N.am    1  UNL1       -0.2935
      2 C         142.8437  142.8071  158.4953 C.2     1  UNL1        0.2639
      3 O         143.5861  143.6230  159.5118 O.2     1  UNL1       -0.2685
      4 H         140.8615  142.3599  157.7424 H       1  UNL1        0.1502
      5 C         143.5963  141.9029  157.5646 C.ar    1  UNL1        0.1356
      6 C         143.2109  140.4580  157.4480 C.ar    1  UNL1        0.0383
      7 C         143.9634  139.5538  156.5173 C.ar    1  UNL1        0.0510
      8 C         145.1013  140.0945  155.7033 C.ar    1  UNL1        0.0337
      9 C         145.4867  141.5395  155.8199 C.ar    1  UNL1        0.0826
     10 N         144.7342  142.4437  156.7506 N.ar    1  UNL1       -0.2407
     11 N         143.5779  138.1089  156.4007 N.pl3   1  UNL1       -0.3074
     12 C         144.2098  137.2467  155.3484 C.3     1  UNL1        0.0913
     13 C         143.8244  135.8017  155.2317 C.3     1  UNL1        0.0305
     14 C         142.8071  135.2190  156.1674 C.3     1  UNL1        0.0801
     15 C         142.1752  136.0812  157.2196 C.3     1  UNL1        0.0305
     16 C         142.5606  137.5261  157.3363 C.3     1  UNL1        0.0913
     17 C         142.4216  133.7741  156.0507 C.2     1  UNL1        0.2253
     18 O         141.1984  133.3844  155.2749 O.2     1  UNL1       -0.2749
     19 N         143.2594  132.7188  156.7099 N.am    1  UNL1       -0.2795
     20 C         143.0005  131.2416  156.6805 C.3     1  UNL1        0.0935
     21 C         144.0843  130.5652  157.4666 C.3     1  UNL1        0.0233
     22 C         145.0131  131.6245  157.9819 C.3     1  UNL1        0.0233
     23 C         144.5033  132.9554  157.5142 C.3     1  UNL1        0.0935
     24 C         146.6247  142.0802  155.0059 C.ar    1  UNL1        0.0177
     25 C         148.0350  141.6914  155.3371 C.ar    1  UNL1        0.0015
     26 C         149.1729  142.2321  154.5231 C.ar    1  UNL1        0.0000
     27 C         148.9005  143.1617  153.3778 C.ar    1  UNL1        0.0000
     28 C         147.4902  143.5505  153.0465 C.ar    1  UNL1        0.0000
     29 C         146.3523  143.0098  153.8606 C.ar    1  UNL1        0.0015
     30 C         140.5962  143.7996  159.3403 C.3     1  UNL1        0.1494
     31 C         141.5310  142.1498  165.9474 C.2     1  UNL1        0.4050
     32 O         142.9451  142.4641  166.3367 O.2     1  UNL1       -0.2262
     33 N         141.0612  142.4169  164.5481 N.am    1  UNL1       -0.2425
     34 C         139.6471  142.1026  164.1589 C.3     1  UNL1        0.1182
     35 C         139.1774  142.3697  162.7596 C.3     1  UNL1        0.1151
     36 N         140.1217  142.9511  161.7496 N.am    1  UNL1       -0.2747
     37 C         139.6519  143.2182  160.3503 C.2     1  UNL1        0.2436
     38 O         138.2378  142.9039  159.9611 O.2     1  UNL1       -0.2731
     39 C         141.5358  143.2654  162.1388 C.3     1  UNL1        0.1151
     40 C         142.0055  142.9983  163.5381 C.3     1  UNL1        0.1182
     41 O         140.5867  141.5684  166.9574 O.3     1  UNL1       -0.4345
     42 C         140.3636  140.0860  167.0094 C.3     1  UNL1        0.2101
     43 C         138.9674  139.5379  167.0296 C.3     1  UNL1        0.0475
     44 C         138.3613  138.9830  165.7747 C.3     1  UNL1        0.0038
     45 C         138.9204  137.6610  163.6091 C.3     1  UNL1        0.0000
     46 C         138.9850  137.7965  165.1016 C.3     1  UNL1        0.0001
     47 C         140.7880  145.2851  159.2609 C.3     1  UNL1        0.0349
     48 C         141.0582  145.9368  157.9370 C.3     1  UNL1        0.0439
     49 C         140.0216  145.8921  156.8537 C.2     1  UNL1        0.0504
     50 O         139.2328  147.1234  156.5192 O.co2   1  UNL1       -0.5492
     51 O         139.7739  144.6163  156.1049 O.co2   1  UNL1       -0.5492
@<TRIPOS>UNITY_ATOM_ATTR
50 1
charge -1
@<TRIPOS>BOND
     1    45    46    1
     2    46    44    1
     3    44    43    1
     4    43    42    1
     5    42    41    1
     6    41    31    1
     7    31    32    2
     8    31    33   am
     9    33    34    1
    10    34    35    1
    11    35    36    1
    12    36    37   am
    13    37    38    2
    14    37    30    1
    15    30    47    1
    16    47    48    1
    17    48    49    1
    18    49    50   ar
    19    49    51   ar
    20    30     1    1
    21     1     2   am
    22     2     3    2
    23     2     5    1
    24     5     6   ar
    25     6     7   ar
    26     7    11    1
    27    11    12    1
    28    12    13    1
    29    13    14    1
    30    14    17    1
    31    17    18    2
    32    17    19   am
    33    19    20    1
    34    20    21    1
    35    21    22    1
    36    22    23    1
    37    14    15    1
    38    15    16    1
    39     7     8   ar
    40     8     9   ar
    41     9    24    1
    42    24    25   ar
    43    25    26   ar
    44    26    27   ar
    45    27    28   ar
    46    28    29   ar
    47     9    10   ar
    48    36    39    1
    49    39    40    1
    50    40    33    1
    51    10     5   ar
    52    16    11    1
    53    29    24   ar
    54    23    19    1
    55     1     4    1
@<TRIPOS>MOLECULE
*****
 51 55 0 0 0
SMALL
GASTEIGER

@<TRIPOS>ATOM
      1 N         142.0647  142.2682  159.6598 N.am    1  UNL1       -0.2935
      2 C         142.8839  142.8860  158.5656 C.2     1  UNL1        0.2639
      3 O         142.9772  144.3786  158.4501 O.2     1  UNL1       -0.2685
      4 H         142.0035  141.2885  159.7356 H       1  UNL1        0.1502
      5 C         143.6098  142.0112  157.5869 C.ar    1  UNL1        0.1356
      6 C         143.2256  140.5685  157.4421 C.ar    1  UNL1        0.0383
      7 C         143.9515  139.6936  156.4634 C.ar    1  UNL1        0.0510
      8 C         145.0616  140.2615  155.6297 C.ar    1  UNL1        0.0337
      9 C         145.4458  141.7042  155.7746 C.ar    1  UNL1        0.0826
     10 N         144.7199  142.5790  156.7532 N.ar    1  UNL1       -0.2407
     11 N         143.5673  138.2509  156.3186 N.pl3   1  UNL1       -0.3074
     12 C         144.3862  137.3400  155.4529 C.3     1  UNL1        0.0913
     13 C         144.0020  135.8973  155.3080 C.3     1  UNL1        0.0305
     14 C         142.7989  135.3655  156.0288 C.3     1  UNL1        0.0801
     15 C         141.9799  136.2765  156.8945 C.3     1  UNL1        0.0305
     16 C         142.3641  137.7192  157.0394 C.3     1  UNL1        0.0913
     17 C         142.4146  133.9228  155.8840 C.2     1  UNL1        0.2253
     18 O         141.2342  133.5421  155.0404 O.2     1  UNL1       -0.2749
     19 N         143.2109  132.8608  156.5826 N.am    1  UNL1       -0.2795
     20 C         142.9481  131.3849  156.5316 C.3     1  UNL1        0.0935
     21 C         143.9846  130.7001  157.3724 C.3     1  UNL1        0.0233
     22 C         144.8879  131.7529  157.9431 C.3     1  UNL1        0.0233
     23 C         144.4098  133.0883  157.4550 C.3     1  UNL1        0.0935
     24 C         146.5560  142.2721  154.9408 C.ar    1  UNL1        0.0177
     25 C         147.9415  141.7082  155.0522 C.ar    1  UNL1        0.0015
     26 C         149.0515  142.2761  154.2184 C.ar    1  UNL1        0.0000
     27 C         148.7761  143.4078  153.2732 C.ar    1  UNL1        0.0000
     28 C         147.3906  143.9716  153.1618 C.ar    1  UNL1        0.0000
     29 C         146.2806  143.4038  153.9956 C.ar    1  UNL1        0.0015
     30 C         141.3388  143.1431  160.6384 C.3     1  UNL1        0.1494
     31 C         142.7098  139.0240  165.9679 C.2     1  UNL1        0.4050
     32 O         142.2898  137.6247  165.6278 O.2     1  UNL1       -0.2262
     33 N         142.5196  140.1276  164.9700 N.am    1  UNL1       -0.2425
     34 C         142.9396  141.5269  165.3101 C.3     1  UNL1        0.1182
     35 C         142.7494  142.6305  164.3123 C.3     1  UNL1        0.1151
     36 N         142.1392  142.3350  162.9743 N.am    1  UNL1       -0.2747
     37 C         141.9490  143.4386  161.9764 C.2     1  UNL1        0.2436
     38 O         142.3690  144.8378  162.3165 O.2     1  UNL1       -0.2731
     39 C         141.7192  140.9357  162.6342 C.3     1  UNL1        0.1151
     40 C         141.9094  139.8321  163.6321 C.3     1  UNL1        0.1182
     41 O         143.3201  139.3195  167.3059 O.3     1  UNL1       -0.4345
     42 C         142.4392  139.5388  168.5000 C.3     1  UNL1        0.2101
     43 C         141.2754  140.4811  168.4106 C.3     1  UNL1        0.0475
     44 C         139.8793  139.9414  168.3124 C.3     1  UNL1        0.0038
     45 C         138.1566  138.8012  166.7369 C.3     1  UNL1        0.0000
     46 C         139.2033  139.8486  166.9766 C.3     1  UNL1        0.0001
     47 C         140.0026  143.7223  160.2791 C.3     1  UNL1        0.0349
     48 C         138.8343  143.5425  161.2026 C.3     1  UNL1        0.0439
     49 C         138.1741  142.2011  161.3244 C.2     1  UNL1        0.0504
     50 O         138.4681  141.1265  160.3200 O.co2   1  UNL1       -0.5492
     51 O         137.2198  141.9344  162.4505 O.co2   1  UNL1       -0.5492
@<TRIPOS>UNITY_ATOM_ATTR
50 1
charge -1
@<TRIPOS>BOND
     1    45    46    1
     2    46    44    1
     3    44    43    1
     4    43    42    1
     5    42    41    1
     6    41    31    1
     7    31    32    2
     8    31    33   am
     9    33    34    1
    10    34    35    1
    11    35    36    1
    12    36    37   am
    13    37    38    2
    14    37    30    1
    15    30    47    1
    16    47    48    1
    17    48    49    1
    18    49    50   ar
    19    49    51   ar
    20    30     1    1
    21     1     2   am
    22     2     3    2
    23     2     5    1
    24     5     6   ar
    25     6     7   ar
    26     7    11    1
    27    11    12    1
    28    12    13    1
    29    13    14    1
    30    14    17    1
    31    17    18    2
    32    17    19   am
    33    19    20    1
    34    20    21    1
    35    21    22    1
    36    22    23    1
    37    14    15    1
    38    15    16    1
    39     7     8   ar
    40     8     9   ar
    41     9    24    1
    42    24    25   ar
    43    25    26   ar
    44    26    27   ar
    45    27    28   ar
    46    28    29   ar
    47     9    10   ar
    48    36    39    1
    49    39    40    1
    50    40    33    1
    51    10     5   ar
    52    16    11    1
    53    29    24   ar
    54    23    19    1
    55     1     4    1
@<TRIPOS>MOLECULE
*****
 51 55 0 0 0
SMALL
GASTEIGER

@<TRIPOS>ATOM
      1 N         141.9536  141.0018  160.1832 N.am    1  UNL1       -0.2935
      2 C         142.5973  140.3724  158.9834 C.2     1  UNL1        0.2639
      3 O         144.0569  140.5899  158.7146 O.2     1  UNL1       -0.2685
      4 H         140.9956  140.8590  160.3595 H       1  UNL1        0.1502
      5 C         141.7814  139.5253  158.0523 C.ar    1  UNL1        0.1356
      6 C         140.4777  140.0402  157.5181 C.ar    1  UNL1        0.0383
      7 C         139.6618  139.1933  156.5870 C.ar    1  UNL1        0.0510
      8 C         140.1495  137.8315  156.1902 C.ar    1  UNL1        0.0337
      9 C         141.4532  137.3166  156.7244 C.ar    1  UNL1        0.0826
     10 N         142.2691  138.1635  157.6554 N.ar    1  UNL1       -0.2407
     11 N         138.3581  139.7081  156.0528 N.pl3   1  UNL1       -0.3074
     12 C         137.7197  139.0468  154.8675 C.3     1  UNL1        0.0913
     13 C         136.4160  139.5617  154.3333 C.3     1  UNL1        0.0305
     14 C         135.7508  140.7379  154.9844 C.3     1  UNL1        0.0801
     15 C         136.3892  141.3992  156.1697 C.3     1  UNL1        0.0305
     16 C         137.6929  140.8843  156.7039 C.3     1  UNL1        0.0913
     17 C         134.4471  141.2527  154.4502 C.2     1  UNL1        0.2253
     18 O         134.4179  142.0385  153.1729 O.2     1  UNL1       -0.2749
     19 N         133.1727  140.9818  155.1934 N.am    1  UNL1       -0.2795
     20 C         131.8010  141.4301  154.7840 C.3     1  UNL1        0.0935
     21 C         130.8266  140.9404  155.8141 C.3     1  UNL1        0.0233
     22 C         131.5962  140.1895  156.8600 C.3     1  UNL1        0.0233
     23 C         133.0461  140.2151  156.4764 C.3     1  UNL1        0.0935
     24 C         141.9409  135.9547  156.3275 C.ar    1  UNL1        0.0177
     25 C         141.2400  135.1943  155.2410 C.ar    1  UNL1        0.0015
     26 C         141.7278  133.8324  154.8442 C.ar    1  UNL1        0.0000
     27 C         142.9164  133.2311  155.5338 C.ar    1  UNL1        0.0000
     28 C         143.6172  133.9915  156.6203 C.ar    1  UNL1        0.0000
     29 C         143.1295  135.3533  157.0171 C.ar    1  UNL1        0.0015
     30 C         142.7696  141.8488  161.1143 C.3     1  UNL1        0.1494
     31 C         141.1059  140.0009  167.5226 C.2     1  UNL1        0.4050
     32 O         139.6683  140.3459  167.7756 O.2     1  UNL1       -0.2262
     33 N         141.7262  140.3014  166.1904 N.am    1  UNL1       -0.2425
     34 C         143.1638  139.9564  165.9374 C.3     1  UNL1        0.1182
     35 C         143.7841  140.2570  164.6052 C.3     1  UNL1        0.1151
     36 N         142.9667  140.9026  163.5258 N.am    1  UNL1       -0.2747
     37 C         143.5870  141.2032  162.1936 C.2     1  UNL1        0.2436
     38 O         145.0246  140.8581  161.9406 O.2     1  UNL1       -0.2731
     39 C         141.5290  141.2476  163.7788 C.3     1  UNL1        0.1151
     40 C         140.9088  140.9471  165.1111 C.3     1  UNL1        0.1182
     41 O         141.9233  139.3552  168.6020 O.3     1  UNL1       -0.4345
     42 C         142.1866  140.0887  169.8836 C.3     1  UNL1        0.2101
     43 C         143.2330  141.1624  169.9320 C.3     1  UNL1        0.0475
     44 C         142.9082  142.5480  169.4582 C.3     1  UNL1        0.0038
     45 C         140.4731  143.4491  169.3674 C.3     1  UNL1        0.0000
     46 C         141.7812  143.3113  170.0884 C.3     1  UNL1        0.0001
     47 C         142.7681  143.3414  160.9660 C.3     1  UNL1        0.0349
     48 C         141.5189  144.1220  161.2495 C.3     1  UNL1        0.0439
     49 C         141.0458  145.1601  160.2755 C.2     1  UNL1        0.0504
     50 O         139.7349  145.8547  160.4974 O.co2   1  UNL1       -0.5492
     51 O         141.8836  145.5035  159.0797 O.co2   1  UNL1       -0.5492
@<TRIPOS>UNITY_ATOM_ATTR
50 1
charge -1
@<TRIPOS>BOND
     1    45    46    1
     2    46    44    1
     3    44    43    1
     4    43    42    1
     5    42    41    1
     6    41    31    1
     7    31    32    2
     8    31    33   am
     9    33    34    1
    10    34    35    1
    11    35    36    1
    12    36    37   am
    13    37    38    2
    14    37    30    1
    15    30    47    1
    16    47    48    1
    17    48    49    1
    18    49    50   ar
    19    49    51   ar
    20    30     1    1
    21     1     2   am
    22     2     3    2
    23     2     5    1
    24     5     6   ar
    25     6     7   ar
    26     7    11    1
    27    11    12    1
    28    12    13    1
    29    13    14    1
    30    14    17    1
    31    17    18    2
    32    17    19   am
    33    19    20    1
    34    20    21    1
    35    21    22    1
    36    22    23    1
    37    14    15    1
    38    15    16    1
    39     7     8   ar
    40     8     9   ar
    41     9    24    1
    42    24    25   ar
    43    25    26   ar
    44    26    27   ar
    45    27    28   ar
    46    28    29   ar
    47     9    10   ar
    48    36    39    1
    49    39    40    1
    50    40    33    1
    51    10     5   ar
    52    16    11    1
    53    29    24   ar
    54    23    19    1
    55     1     4    1
@<TRIPOS>MOLECULE
*****
 51 55 0 0 0
SMALL
GASTEIGER

@<TRIPOS>ATOM
      1 N         141.5810  139.4815  159.7253 N.am    1  UNL1       -0.2935
      2 C         141.1256  138.6794  158.5424 C.2     1  UNL1        0.2639
      3 O         139.6801  138.3041  158.4022 O.2     1  UNL1       -0.2685
      4 H         142.5297  139.7278  159.8173 H       1  UNL1        0.1502
      5 C         142.1158  138.2527  157.4995 C.ar    1  UNL1        0.1356
      6 C         143.0469  139.2600  156.8926 C.ar    1  UNL1        0.0383
      7 C         144.0370  138.8334  155.8497 C.ar    1  UNL1        0.0510
      8 C         144.0961  137.3993  155.4138 C.ar    1  UNL1        0.0337
      9 C         143.1650  136.3920  156.0208 C.ar    1  UNL1        0.0826
     10 N         142.1749  136.8187  157.0636 N.ar    1  UNL1       -0.2407
     11 N         144.9681  139.8407  155.2428 N.pl3   1  UNL1       -0.3074
     12 C         145.2884  139.7793  153.7787 C.3     1  UNL1        0.0913
     13 C         146.2194  140.7867  153.1718 C.3     1  UNL1        0.0305
     14 C         146.8302  141.8554  154.0289 C.3     1  UNL1        0.0801
     15 C         146.5099  141.9167  155.4930 C.3     1  UNL1        0.0305
     16 C         145.5789  140.9094  156.0999 C.3     1  UNL1        0.0913
     17 C         147.7613  142.8627  153.4220 C.2     1  UNL1        0.2253
     18 O         147.2115  144.0023  152.6163 O.2     1  UNL1       -0.2749
     19 N         149.2421  142.7305  153.6207 N.am    1  UNL1       -0.2795
     20 C         150.2907  143.6556  153.0776 C.3     1  UNL1        0.0935
     21 C         151.6312  143.1467  153.5187 C.3     1  UNL1        0.0233
     22 C         151.4110  141.9072  154.3342 C.3     1  UNL1        0.0233
     23 C         149.9346  141.6499  154.3973 C.3     1  UNL1        0.0935
     24 C         143.2241  134.9579  155.5848 C.ar    1  UNL1        0.0177
     25 C         142.5165  134.5240  154.3355 C.ar    1  UNL1        0.0015
     26 C         142.5756  133.0900  153.8996 C.ar    1  UNL1        0.0000
     27 C         143.3423  132.0899  154.7131 C.ar    1  UNL1        0.0000
     28 C         144.0500  132.5237  155.9624 C.ar    1  UNL1        0.0000
     29 C         143.9908  133.9577  156.3983 C.ar    1  UNL1        0.0015
     30 C         140.5908  139.9082  160.7682 C.3     1  UNL1        0.1494
     31 C         142.8717  141.3486  167.0906 C.2     1  UNL1        0.4050
     32 O         143.5853  142.6677  167.0665 O.2     1  UNL1       -0.2262
     33 N         142.2728  140.7967  165.8309 N.am    1  UNL1       -0.2425
     34 C         141.5592  139.4776  165.8551 C.3     1  UNL1        0.1182
     35 C         140.9603  138.9257  164.5954 C.3     1  UNL1        0.1151
     36 N         141.0750  139.6929  163.3116 N.am    1  UNL1       -0.2747
     37 C         140.4761  139.1410  162.0520 C.2     1  UNL1        0.2436
     38 O         139.7625  137.8219  162.0761 O.2     1  UNL1       -0.2731
     39 C         141.7886  141.0120  163.2875 C.3     1  UNL1        0.1151
     40 C         142.3875  141.5639  164.5472 C.3     1  UNL1        0.1182
     41 O         142.7570  140.5813  168.3744 O.3     1  UNL1       -0.4345
     42 C         142.5417  141.3107  169.6673 C.3     1  UNL1        0.2101
     43 C         141.6097  142.4849  169.7199 C.3     1  UNL1        0.0475
     44 C         140.1278  142.2636  169.7916 C.3     1  UNL1        0.0038
     45 C         139.2386  140.1002  168.6607 C.3     1  UNL1        0.0000
     46 C         139.5819  140.8708  169.9010 C.3     1  UNL1        0.0001
     47 C         139.7154  141.1022  160.5272 C.3     1  UNL1        0.0349
     48 C         138.2838  141.0851  160.9748 C.3     1  UNL1        0.0439
     49 C         137.7800  142.1381  161.9168 C.2     1  UNL1        0.0504
     50 O         138.1099  143.5812  161.6745 O.co2   1  UNL1       -0.5492
     51 O         136.9462  141.7480  163.1011 O.co2   1  UNL1       -0.5492
@<TRIPOS>UNITY_ATOM_ATTR
50 1
charge -1
@<TRIPOS>BOND
     1    45    46    1
     2    46    44    1
     3    44    43    1
     4    43    42    1
     5    42    41    1
     6    41    31    1
     7    31    32    2
     8    31    33   am
     9    33    34    1
    10    34    35    1
    11    35    36    1
    12    36    37   am
    13    37    38    2
    14    37    30    1
    15    30    47    1
    16    47    48    1
    17    48    49    1
    18    49    50   ar
    19    49    51   ar
    20    30     1    1
    21     1     2   am
    22     2     3    2
    23     2     5    1
    24     5     6   ar
    25     6     7   ar
    26     7    11    1
    27    11    12    1
    28    12    13    1
    29    13    14    1
    30    14    17    1
    31    17    18    2
    32    17    19   am
    33    19    20    1
    34    20    21    1
    35    21    22    1
    36    22    23    1
    37    14    15    1
    38    15    16    1
    39     7     8   ar
    40     8     9   ar
    41     9    24    1
    42    24    25   ar
    43    25    26   ar
    44    26    27   ar
    45    27    28   ar
    46    28    29   ar
    47     9    10   ar
    48    36    39    1
    49    39    40    1
    50    40    33    1
    51    10     5   ar
    52    16    11    1
    53    29    24   ar
    54    23    19    1
    55     1     4    1
@<TRIPOS>MOLECULE
*****
 51 55 0 0 0
SMALL
GASTEIGER

@<TRIPOS>ATOM
      1 N         141.8346  139.1587  160.1717 N.am    1  UNL1       -0.2935
      2 C         141.2572  138.6139  158.8991 C.2     1  UNL1        0.2639
      3 O         139.7782  138.3932  158.7807 O.2     1  UNL1       -0.2685
      4 H         142.8053  139.3036  160.2495 H       1  UNL1        0.1502
      5 C         142.1587  138.2898  157.7448 C.ar    1  UNL1        0.1356
      6 C         142.1168  136.9266  157.1203 C.ar    1  UNL1        0.0383
      7 C         143.0183  136.6025  155.9660 C.ar    1  UNL1        0.0510
      8 C         143.9615  137.6415  155.4363 C.ar    1  UNL1        0.0337
      9 C         144.0034  139.0046  156.0608 C.ar    1  UNL1        0.0826
     10 N         143.1019  139.3288  157.2151 N.ar    1  UNL1       -0.2407
     11 N         142.9764  135.2393  155.3415 N.pl3   1  UNL1       -0.3074
     12 C         142.1970  135.0161  154.0796 C.3     1  UNL1        0.0913
     13 C         142.1551  133.6529  153.4551 C.3     1  UNL1        0.0305
     14 C         142.8927  132.5130  154.0925 C.3     1  UNL1        0.0801
     15 C         143.6722  132.7362  155.3545 C.3     1  UNL1        0.0305
     16 C         143.7140  134.0993  155.9790 C.3     1  UNL1        0.0913
     17 C         142.8509  131.1498  153.4680 C.2     1  UNL1        0.2253
     18 O         143.9017  130.7465  152.4765 O.2     1  UNL1       -0.2749
     19 N         141.7582  130.1899  153.8350 N.am    1  UNL1       -0.2795
     20 C         141.5873  128.8006  153.2959 C.3     1  UNL1        0.0935
     21 C         140.3680  128.2028  153.9333 C.3     1  UNL1        0.0233
     22 C         139.7855  129.2227  154.8663 C.3     1  UNL1        0.0233
     23 C         140.6446  130.4508  154.8056 C.3     1  UNL1        0.0935
     24 C         144.9467  140.0437  155.5311 C.ar    1  UNL1        0.0177
     25 C         145.2382  140.1124  154.0613 C.ar    1  UNL1        0.0015
     26 C         146.1815  141.1514  153.5316 C.ar    1  UNL1        0.0000
     27 C         146.8333  142.1217  154.4716 C.ar    1  UNL1        0.0000
     28 C         146.5418  142.0530  155.9414 C.ar    1  UNL1        0.0000
     29 C         145.5985  141.0140  156.4711 C.ar    1  UNL1        0.0015
     30 C         140.9331  139.4829  161.3260 C.3     1  UNL1        0.1494
     31 C         142.9600  141.2062  167.6642 C.2     1  UNL1        0.4050
     32 O         143.3724  142.6483  167.6727 O.2     1  UNL1       -0.2262
     33 N         142.4722  140.5731  166.3948 N.am    1  UNL1       -0.2425
     34 C         142.0598  139.1309  166.3863 C.3     1  UNL1        0.1182
     35 C         141.5720  138.4978  165.1170 C.3     1  UNL1        0.1151
     36 N         141.4965  139.3069  163.8562 N.am    1  UNL1       -0.2747
     37 C         141.0086  138.6738  162.5868 C.2     1  UNL1        0.2436
     38 O         140.5963  137.2317  162.5783 O.2     1  UNL1       -0.2731
     39 C         141.9088  140.7490  163.8647 C.3     1  UNL1        0.1151
     40 C         142.3967  141.3821  165.1340 C.3     1  UNL1        0.1182
     41 O         143.0355  140.3971  168.9250 O.3     1  UNL1       -0.4345
     42 C         143.1626  141.0857  170.2515 C.3     1  UNL1        0.2101
     43 C         141.9465  141.3064  171.1015 C.3     1  UNL1        0.0475
     44 C         140.5803  141.2508  170.4848 C.3     1  UNL1        0.0038
     45 C         140.5974  143.7489  169.7712 C.3     1  UNL1        0.0000
     46 C         139.8412  142.5208  170.1833 C.3     1  UNL1        0.0001
     47 C         139.9562  140.6161  161.2194 C.3     1  UNL1        0.0349
     48 C         138.4954  140.3718  161.4571 C.3     1  UNL1        0.0439
     49 C         137.8741  140.7562  162.7672 C.2     1  UNL1        0.0504
     50 O         138.1307  139.9273  163.9908 O.co2   1  UNL1       -0.5492
     51 O         136.9963  141.9694  162.8537 O.co2   1  UNL1       -0.5492
@<TRIPOS>UNITY_ATOM_ATTR
50 1
charge -1
@<TRIPOS>BOND
     1    45    46    1
     2    46    44    1
     3    44    43    1
     4    43    42    1
     5    42    41    1
     6    41    31    1
     7    31    32    2
     8    31    33   am
     9    33    34    1
    10    34    35    1
    11    35    36    1
    12    36    37   am
    13    37    38    2
    14    37    30    1
    15    30    47    1
    16    47    48    1
    17    48    49    1
    18    49    50   ar
    19    49    51   ar
    20    30     1    1
    21     1     2   am
    22     2     3    2
    23     2     5    1
    24     5     6   ar
    25     6     7   ar
    26     7    11    1
    27    11    12    1
    28    12    13    1
    29    13    14    1
    30    14    17    1
    31    17    18    2
    32    17    19   am
    33    19    20    1
    34    20    21    1
    35    21    22    1
    36    22    23    1
    37    14    15    1
    38    15    16    1
    39     7     8   ar
    40     8     9   ar
    41     9    24    1
    42    24    25   ar
    43    25    26   ar
    44    26    27   ar
    45    27    28   ar
    46    28    29   ar
    47     9    10   ar
    48    36    39    1
    49    39    40    1
    50    40    33    1
    51    10     5   ar
    52    16    11    1
    53    29    24   ar
    54    23    19    1
    55     1     4    1
@<TRIPOS>MOLECULE
*****
 51 55 0 0 0
SMALL
GASTEIGER

@<TRIPOS>ATOM
      1 N         136.7163  142.3580  155.4202 N.am    1  UNL1       -0.2935
      2 C         137.0499  143.6569  154.7483 C.2     1  UNL1        0.2639
      3 O         136.4101  144.0096  153.4382 O.2     1  UNL1       -0.2685
      4 H         137.1362  142.1265  156.2801 H       1  UNL1        0.1502
      5 C         138.0232  144.6032  155.3865 C.ar    1  UNL1        0.1356
      6 C         138.9518  144.1141  156.4583 C.ar    1  UNL1        0.0383
      7 C         139.9251  145.0603  157.0964 C.ar    1  UNL1        0.0510
      8 C         139.9699  146.4956  156.6628 C.ar    1  UNL1        0.0337
      9 C         139.0414  146.9846  155.5910 C.ar    1  UNL1        0.0826
     10 N         138.0681  146.0384  154.9529 N.ar    1  UNL1       -0.2407
     11 N         140.8536  144.5713  158.1682 N.pl3   1  UNL1       -0.3074
     12 C         140.5284  144.8170  159.6117 C.3     1  UNL1        0.0913
     13 C         141.4569  144.3279  160.6835 C.3     1  UNL1        0.0305
     14 C         142.7106  143.5932  160.3117 C.3     1  UNL1        0.0801
     15 C         143.0359  143.3475  158.8682 C.3     1  UNL1        0.0305
     16 C         142.1074  143.8366  157.7964 C.3     1  UNL1        0.0913
     17 C         143.6391  143.1042  161.3835 C.2     1  UNL1        0.2253
     18 O         144.5298  144.0728  162.1036 O.2     1  UNL1       -0.2749
     19 N         143.6770  141.6465  161.7352 N.am    1  UNL1       -0.2795
     20 C         144.5490  141.0137  162.7789 C.3     1  UNL1        0.0935
     21 C         144.2605  139.5417  162.7938 C.3     1  UNL1        0.0233
     22 C         143.2101  139.2648  161.7592 C.3     1  UNL1        0.0233
     23 C         142.8496  140.5656  161.1050 C.3     1  UNL1        0.0935
     24 C         139.0862  148.4199  155.1574 C.ar    1  UNL1        0.0177
     25 C         139.7635  148.7944  153.8725 C.ar    1  UNL1        0.0015
     26 C         139.8083  150.2297  153.4390 C.ar    1  UNL1        0.0000
     27 C         139.1759  151.2904  154.2904 C.ar    1  UNL1        0.0000
     28 C         138.4987  150.9159  155.5753 C.ar    1  UNL1        0.0000
     29 C         138.4539  149.4807  156.0088 C.ar    1  UNL1        0.0015
     30 C         135.7429  141.4117  154.7820 C.3     1  UNL1        0.1494
     31 C         140.8264  136.9037  155.8237 C.2     1  UNL1        0.4050
     32 O         141.4721  137.1889  157.1472 O.2     1  UNL1       -0.2262
     33 N         139.6806  137.7482  155.3507 N.am    1  UNL1       -0.2425
     34 C         139.0349  137.4630  154.0272 C.3     1  UNL1        0.1182
     35 C         137.8890  138.3075  153.5542 C.3     1  UNL1        0.1151
     36 N         137.3889  139.4373  154.4046 N.am    1  UNL1       -0.2747
     37 C         136.2430  140.2819  153.9316 C.2     1  UNL1        0.2436
     38 O         135.5974  139.9967  152.6081 O.2     1  UNL1       -0.2731
     39 C         138.0346  139.7226  155.7281 C.3     1  UNL1        0.1151
     40 C         139.1804  138.8780  156.2011 C.3     1  UNL1        0.1182
     41 O         141.3266  135.7738  154.9733 O.3     1  UNL1       -0.4345
     42 C         141.9188  134.5554  155.6173 C.3     1  UNL1        0.2101
     43 C         143.3611  134.5510  156.0295 C.3     1  UNL1        0.0475
     44 C         143.7645  133.9447  157.3408 C.3     1  UNL1        0.0038
     45 C         144.8438  131.8896  156.1740 C.3     1  UNL1        0.0000
     46 C         144.2464  132.5253  157.3942 C.3     1  UNL1        0.0001
     47 C         134.2694  141.5953  154.9944 C.3     1  UNL1        0.0349
     48 C         133.4151  140.4234  155.3775 C.3     1  UNL1        0.0439
     49 C         133.2442  140.0606  156.8229 C.2     1  UNL1        0.0504
     50 O         134.4115  139.5411  157.6089 O.co2   1  UNL1       -0.5492
     51 O         131.9061  140.2173  157.4824 O.co2   1  UNL1       -0.5492
@<TRIPOS>UNITY_ATOM_ATTR
50 1
charge -1
@<TRIPOS>BOND
     1    45    46    1
     2    46    44    1
     3    44    43    1
     4    43    42    1
     5    42    41    1
     6    41    31    1
     7    31    32    2
     8    31    33   am
     9    33    34    1
    10    34    35    1
    11    35    36    1
    12    36    37   am
    13    37    38    2
    14    37    30    1
    15    30    47    1
    16    47    48    1
    17    48    49    1
    18    49    50   ar
    19    49    51   ar
    20    30     1    1
    21     1     2   am
    22     2     3    2
    23     2     5    1
    24     5     6   ar
    25     6     7   ar
    26     7    11    1
    27    11    12    1
    28    12    13    1
    29    13    14    1
    30    14    17    1
    31    17    18    2
    32    17    19   am
    33    19    20    1
    34    20    21    1
    35    21    22    1
    36    22    23    1
    37    14    15    1
    38    15    16    1
    39     7     8   ar
    40     8     9   ar
    41     9    24    1
    42    24    25   ar
    43    25    26   ar
    44    26    27   ar
    45    27    28   ar
    46    28    29   ar
    47     9    10   ar
    48    36    39    1
    49    39    40    1
    50    40    33    1
    51    10     5   ar
    52    16    11    1
    53    29    24   ar
    54    23    19    1
    55     1     4    1
@<TRIPOS>MOLECULE
*****
 51 55 0 0 0
SMALL
GASTEIGER

@<TRIPOS>ATOM
      1 N         139.1861  141.9641  161.3241 N.am    1  UNL1       -0.2935
      2 C         140.5926  141.8896  160.8084 C.2     1  UNL1        0.2639
      3 O         141.7469  141.9791  161.7622 O.2     1  UNL1       -0.2685
      4 H         138.4285  141.9053  160.6981 H       1  UNL1        0.1502
      5 C         140.8450  141.7257  159.3388 C.ar    1  UNL1        0.1356
      6 C         141.2015  140.3781  158.7848 C.ar    1  UNL1        0.0383
      7 C         141.4538  140.2141  157.3154 C.ar    1  UNL1        0.0510
      8 C         141.3497  141.3977  156.3999 C.ar    1  UNL1        0.0337
      9 C         140.9932  142.7453  156.9539 C.ar    1  UNL1        0.0826
     10 N         140.7408  142.9093  158.4234 N.ar    1  UNL1       -0.2407
     11 N         141.8104  138.8665  156.7614 N.pl3   1  UNL1       -0.3074
     12 C         140.7554  137.8092  156.6238 C.3     1  UNL1        0.0913
     13 C         141.1119  136.4616  156.0698 C.3     1  UNL1        0.0305
     14 C         142.5234  136.1714  155.6534 C.3     1  UNL1        0.0801
     15 C         143.5784  137.2287  155.7910 C.3     1  UNL1        0.0305
     16 C         143.2218  138.5763  156.3450 C.3     1  UNL1        0.0913
     17 C         142.8799  134.8238  155.0994 C.2     1  UNL1        0.2253
     18 O         142.5275  134.4780  153.6830 O.2     1  UNL1       -0.2749
     19 N         143.5888  133.8220  155.9618 N.am    1  UNL1       -0.2795
     20 C         144.0074  132.4422  155.5484 C.3     1  UNL1        0.0935
     21 C         144.6810  131.7914  156.7202 C.3     1  UNL1        0.0233
     22 C         144.6786  132.7692  157.8578 C.3     1  UNL1        0.0233
     23 C         144.0036  134.0240  157.3892 C.3     1  UNL1        0.0935
     24 C         140.8890  143.9290  156.0383 C.ar    1  UNL1        0.0177
     25 C         140.8935  143.7299  154.5516 C.ar    1  UNL1        0.0015
     26 C         140.7894  144.9135  153.6362 C.ar    1  UNL1        0.0000
     27 C         140.6807  146.2962  154.2074 C.ar    1  UNL1        0.0000
     28 C         140.6762  146.4953  155.6941 C.ar    1  UNL1        0.0000
     29 C         140.7803  145.3117  156.6095 C.ar    1  UNL1        0.0015
     30 C         138.9337  142.1280  162.7937 C.3     1  UNL1        0.1494
     31 C         142.8915  141.3913  168.3653 C.2     1  UNL1        0.4050
     32 O         143.6514  142.6632  168.5995 O.2     1  UNL1       -0.2262
     33 N         141.9479  141.2843  167.2042 N.am    1  UNL1       -0.2425
     34 C         141.1880  140.0124  166.9700 C.3     1  UNL1        0.1182
     35 C         140.2445  139.9054  165.8089 C.3     1  UNL1        0.1151
     36 N         140.0609  141.0702  164.8819 N.am    1  UNL1       -0.2747
     37 C         139.1173  140.9632  163.7207 C.2     1  UNL1        0.2436
     38 O         138.3574  139.6913  163.4866 O.2     1  UNL1       -0.2731
     39 C         140.8208  142.3421  165.1160 C.3     1  UNL1        0.1151
     40 C         141.7643  142.4491  166.2772 C.3     1  UNL1        0.1182
     41 O         143.0751  140.2265  169.2924 O.3     1  UNL1       -0.4345
     42 C         142.2629  140.1335  170.5500 C.3     1  UNL1        0.2101
     43 C         140.7748  139.9618  170.4708 C.3     1  UNL1        0.0475
     44 C         139.8904  141.1593  170.2859 C.3     1  UNL1        0.0038
     45 C         140.4579  143.6439  169.7813 C.3     1  UNL1        0.0000
     46 C         140.3472  142.5086  170.7555 C.3     1  UNL1        0.0001
     47 C         138.4977  143.4568  163.3361 C.3     1  UNL1        0.0349
     48 C         138.3767  144.6379  162.4194 C.3     1  UNL1        0.0439
     49 C         139.5486  145.5516  162.2146 C.2     1  UNL1        0.0504
     50 O         140.8237  145.3165  162.9689 O.co2   1  UNL1       -0.5492
     51 O         139.4454  146.7002  161.2555 O.co2   1  UNL1       -0.5492
@<TRIPOS>UNITY_ATOM_ATTR
50 1
charge -1
@<TRIPOS>BOND
     1    45    46    1
     2    46    44    1
     3    44    43    1
     4    43    42    1
     5    42    41    1
     6    41    31    1
     7    31    32    2
     8    31    33   am
     9    33    34    1
    10    34    35    1
    11    35    36    1
    12    36    37   am
    13    37    38    2
    14    37    30    1
    15    30    47    1
    16    47    48    1
    17    48    49    1
    18    49    50   ar
    19    49    51   ar
    20    30     1    1
    21     1     2   am
    22     2     3    2
    23     2     5    1
    24     5     6   ar
    25     6     7   ar
    26     7    11    1
    27    11    12    1
    28    12    13    1
    29    13    14    1
    30    14    17    1
    31    17    18    2
    32    17    19   am
    33    19    20    1
    34    20    21    1
    35    21    22    1
    36    22    23    1
    37    14    15    1
    38    15    16    1
    39     7     8   ar
    40     8     9   ar
    41     9    24    1
    42    24    25   ar
    43    25    26   ar
    44    26    27   ar
    45    27    28   ar
    46    28    29   ar
    47     9    10   ar
    48    36    39    1
    49    39    40    1
    50    40    33    1
    51    10     5   ar
    52    16    11    1
    53    29    24   ar
    54    23    19    1
    55     1     4    1
