@<TRIPOS>MOLECULE
*****
 35 38 0 0 0
SMALL
GASTEIGER

@<TRIPOS>ATOM
      1 C         138.8891  139.5108  167.0832 C.ar    1  UNL1        0.2512
      2 N         137.9117  138.8802  168.0303 N.ar    1  UNL1       -0.1058
      3 N         138.1008  139.5096  169.3786 N.ar    1  UNL1       -0.0923
      4 C         139.1950  140.5293  169.2648 C.ar    1  UNL1        0.3086
      5 O         139.6822  140.5300  167.8461 O.2     1  UNL1       -0.4048
      6 C         139.3593  138.5191  162.7191 C.ar    1  UNL1        0.0505
      7 C         140.0116  137.6567  163.7586 C.ar    1  UNL1        0.0148
      8 C         139.8548  137.9873  165.2133 C.ar    1  UNL1        0.0060
      9 C         139.0458  139.1803  165.6284 C.ar    1  UNL1        0.0553
     10 C         138.3936  140.0427  164.5888 C.ar    1  UNL1        0.0060
     11 C         138.5504  139.7121  163.1342 C.ar    1  UNL1        0.0148
     12 O         141.5484  139.8004  161.1170 O.2     1  UNL1       -0.2697
     13 C         140.6106  138.8292  160.4633 C.2     1  UNL1        0.2517
     14 N         139.5161  138.1886  161.2643 N.am    1  UNL1       -0.2803
     15 H         138.9005  137.5511  160.8353 H       1  UNL1        0.1552
     16 C         140.7673  138.4986  159.0085 C.ar    1  UNL1        0.0811
     17 C         139.6014  138.6453  158.0763 C.ar    1  UNL1        0.0068
     18 C         139.7582  138.3148  156.6216 C.ar    1  UNL1        0.0003
     19 C         141.0808  137.8375  156.0992 C.ar    1  UNL1        0.0023
     20 C         142.2467  137.6908  157.0315 C.ar    1  UNL1        0.0298
     21 C         142.0899  138.0213  158.4862 C.ar    1  UNL1        0.1445
     22 F         143.2558  137.8746  159.4185 F       1  UNL1       -0.2040
     23 N         139.7114  141.3961  170.3748 N.pl3   1  UNL1       -0.2871
     24 H         139.8552  141.0147  171.2710 H       1  UNL1        0.1512
     25 C         140.0087  142.8440  170.1194 C.3     1  UNL1        0.0925
     26 C         141.4298  143.3223  170.0807 C.3     1  UNL1        0.0386
     27 C         142.5522  142.3319  169.9849 C.3     1  UNL1        0.0739
     28 N         142.6750  141.4522  168.7763 N.3     1  UNL1       -0.2723
     29 C         142.7075  142.0608  167.4056 C.3     1  UNL1        0.0777
     30 C         142.8303  141.1811  166.1970 C.3     1  UNL1        0.0839
     31 C         142.9207  139.6926  166.3589 C.3     1  UNL1        0.2666
     32 F         143.0363  138.2403  166.0017 F       1  UNL1       -0.2042
     33 F         142.9933  139.7969  164.8643 F       1  UNL1       -0.2042
     34 C         142.8883  139.0839  167.7294 C.3     1  UNL1        0.0839
     35 C         142.7654  139.9637  168.9381 C.3     1  UNL1        0.0777
@<TRIPOS>BOND
     1    12    13    2
     2    13    14   am
     3    14     6    1
     4     6     7   ar
     5     7     8   ar
     6     8     9   ar
     7     9     1    1
     8     1     2   ar
     9     2     3   ar
    10     3     4   ar
    11     4    23    1
    12    23    25    1
    13    25    26    1
    14    26    27    1
    15    27    28    1
    16    28    29    1
    17    29    30    1
    18    30    31    1
    19    31    32    1
    20    31    33    1
    21    31    34    1
    22    34    35    1
    23     4     5   ar
    24     9    10   ar
    25    10    11   ar
    26    13    16    1
    27    16    17   ar
    28    17    18   ar
    29    18    19   ar
    30    19    20   ar
    31    20    21   ar
    32    21    22    1
    33    11     6   ar
    34    21    16   ar
    35     5     1   ar
    36    35    28    1
    37    14    15    1
    38    23    24    1
@<TRIPOS>MOLECULE
*****
 35 38 0 0 0
SMALL
GASTEIGER

@<TRIPOS>ATOM
      1 C         138.5791  140.3024  165.8416 C.ar    1  UNL1        0.2512
      2 N         137.7556  139.1193  166.2568 N.ar    1  UNL1       -0.1058
      3 N         138.0936  138.7965  167.6821 N.ar    1  UNL1       -0.0923
      4 C         139.1260  139.7801  168.1479 C.ar    1  UNL1        0.3086
      5 O         139.4260  140.7107  167.0104 O.2     1  UNL1       -0.4048
      6 C         138.5193  142.2792  161.7995 C.ar    1  UNL1        0.0505
      7 C         139.1401  140.9234  161.9622 C.ar    1  UNL1        0.0148
      8 C         139.1601  140.2645  163.3096 C.ar    1  UNL1        0.0060
      9 C         138.5591  140.9614  164.4942 C.ar    1  UNL1        0.0553
     10 C         137.9383  142.3171  164.3315 C.ar    1  UNL1        0.0060
     11 C         137.9183  142.9760  162.9842 C.ar    1  UNL1        0.0148
     12 O         141.0913  143.1090  160.4972 O.2     1  UNL1       -0.2697
     13 C         139.7853  143.3530  159.8010 C.2     1  UNL1        0.2517
     14 N         138.4993  142.9381  160.4521 N.am    1  UNL1       -0.2803
     15 H         137.6421  143.0983  159.9952 H       1  UNL1        0.1552
     16 C         139.7654  144.0120  158.4536 C.ar    1  UNL1        0.0811
     17 C         139.0176  143.3768  157.3191 C.ar    1  UNL1        0.0068
     18 C         138.9976  144.0357  155.9717 C.ar    1  UNL1        0.0003
     19 C         139.7255  145.3300  155.7590 C.ar    1  UNL1        0.0023
     20 C         140.4733  145.9652  156.8935 C.ar    1  UNL1        0.0298
     21 C         140.4932  145.3062  158.2408 C.ar    1  UNL1        0.1445
     22 F         141.2410  145.9414  159.3755 F       1  UNL1       -0.2040
     23 N         139.7489  139.8251  169.5117 N.pl3   1  UNL1       -0.2871
     24 H         139.8101  139.0045  170.0522 H       1  UNL1        0.1512
     25 C         140.2785  141.1203  170.0519 C.3     1  UNL1        0.0925
     26 C         141.7142  141.2259  170.4737 C.3     1  UNL1        0.0386
     27 C         142.7902  140.6036  169.6341 C.3     1  UNL1        0.0739
     28 N         142.6857  140.6334  168.1382 N.3     1  UNL1       -0.2723
     29 C         142.6615  139.3499  167.3622 C.3     1  UNL1        0.0777
     30 C         142.5570  139.3797  165.8663 C.3     1  UNL1        0.0839
     31 C         142.4767  140.6930  165.1460 C.3     1  UNL1        0.2666
     32 F         142.3758  141.6795  164.0206 F       1  UNL1       -0.2042
     33 F         142.4174  139.7521  163.9793 F       1  UNL1       -0.2042
     34 C         142.5008  141.9765  165.9219 C.3     1  UNL1        0.0839
     35 C         142.6054  141.9467  167.4179 C.3     1  UNL1        0.0777
@<TRIPOS>BOND
     1    12    13    2
     2    13    14   am
     3    14     6    1
     4     6     7   ar
     5     7     8   ar
     6     8     9   ar
     7     9     1    1
     8     1     2   ar
     9     2     3   ar
    10     3     4   ar
    11     4    23    1
    12    23    25    1
    13    25    26    1
    14    26    27    1
    15    27    28    1
    16    28    29    1
    17    29    30    1
    18    30    31    1
    19    31    32    1
    20    31    33    1
    21    31    34    1
    22    34    35    1
    23     4     5   ar
    24     9    10   ar
    25    10    11   ar
    26    13    16    1
    27    16    17   ar
    28    17    18   ar
    29    18    19   ar
    30    19    20   ar
    31    20    21   ar
    32    21    22    1
    33    11     6   ar
    34    21    16   ar
    35     5     1   ar
    36    35    28    1
    37    14    15    1
    38    23    24    1
@<TRIPOS>MOLECULE
*****
 35 38 0 0 0
SMALL
GASTEIGER

@<TRIPOS>ATOM
      1 C         138.4116  141.7194  159.7282 C.ar    1  UNL1        0.2512
      2 N         138.0736  140.3614  159.1882 N.ar    1  UNL1       -0.1058
      3 N         137.4372  140.5430  157.8421 N.ar    1  UNL1       -0.0923
      4 C         137.3819  142.0134  157.5502 C.ar    1  UNL1        0.3086
      5 O         137.9841  142.7404  158.7158 O.2     1  UNL1       -0.4048
      6 C         140.3653  142.5794  163.6897 C.ar    1  UNL1        0.0505
      7 C         140.8359  141.4244  162.8564 C.ar    1  UNL1        0.0148
      8 C         140.1847  141.1377  161.5359 C.ar    1  UNL1        0.0060
      9 C         139.0628  142.0061  161.0487 C.ar    1  UNL1        0.0553
     10 C         138.5922  143.1611  161.8820 C.ar    1  UNL1        0.0060
     11 C         139.2434  143.4478  163.2025 C.ar    1  UNL1        0.0148
     12 O         139.3878  141.2093  166.1731 O.2     1  UNL1       -0.2697
     13 C         140.5278  142.1810  166.2519 C.2     1  UNL1        0.2517
     14 N         141.0165  142.8661  165.0103 N.am    1  UNL1       -0.2803
     15 H         141.7647  143.5039  165.0620 H       1  UNL1        0.1552
     16 C         141.1790  142.4677  167.5725 C.ar    1  UNL1        0.0811
     17 C         140.4011  143.1464  168.6607 C.ar    1  UNL1        0.0068
     18 C         141.0523  143.4331  169.9812 C.ar    1  UNL1        0.0003
     19 C         142.4814  143.0410  170.2134 C.ar    1  UNL1        0.0023
     20 C         143.2593  142.3624  169.1252 C.ar    1  UNL1        0.0298
     21 C         142.6081  142.0757  167.8048 C.ar    1  UNL1        0.1445
     22 F         143.3860  141.3970  166.7165 F       1  UNL1       -0.2040
     23 N         136.8225  142.6456  156.3102 N.pl3   1  UNL1       -0.2871
     24 H         136.0261  142.2610  155.8779 H       1  UNL1        0.1512
     25 C         137.4767  143.8640  155.7291 C.3     1  UNL1        0.0925
     26 C         138.9727  143.9532  155.6642 C.3     1  UNL1        0.0386
     27 C         139.6924  145.0371  156.4105 C.3     1  UNL1        0.0739
     28 N         140.4336  144.7130  157.6736 N.3     1  UNL1       -0.2723
     29 C         141.3234  143.5069  157.7328 C.3     1  UNL1        0.0777
     30 C         142.0645  143.1828  158.9959 C.3     1  UNL1        0.0839
     31 C         141.9160  144.0649  160.2000 C.3     1  UNL1        0.2666
     32 F         142.0985  144.5917  161.5926 F       1  UNL1       -0.2042
     33 F         142.8691  143.0417  160.7427 F       1  UNL1       -0.2042
     34 C         141.0263  145.2711  160.1409 C.3     1  UNL1        0.0839
     35 C         140.2851  145.5951  158.8777 C.3     1  UNL1        0.0777
@<TRIPOS>BOND
     1    12    13    2
     2    13    14   am
     3    14     6    1
     4     6     7   ar
     5     7     8   ar
     6     8     9   ar
     7     9     1    1
     8     1     2   ar
     9     2     3   ar
    10     3     4   ar
    11     4    23    1
    12    23    25    1
    13    25    26    1
    14    26    27    1
    15    27    28    1
    16    28    29    1
    17    29    30    1
    18    30    31    1
    19    31    32    1
    20    31    33    1
    21    31    34    1
    22    34    35    1
    23     4     5   ar
    24     9    10   ar
    25    10    11   ar
    26    13    16    1
    27    16    17   ar
    28    17    18   ar
    29    18    19   ar
    30    19    20   ar
    31    20    21   ar
    32    21    22    1
    33    11     6   ar
    34    21    16   ar
    35     5     1   ar
    36    35    28    1
    37    14    15    1
    38    23    24    1
@<TRIPOS>MOLECULE
*****
 35 38 0 0 0
SMALL
GASTEIGER

@<TRIPOS>ATOM
      1 C         142.9509  139.5288  167.2590 C.ar    1  UNL1        0.2512
      2 N         142.9934  138.6264  168.4565 N.ar    1  UNL1       -0.1058
      3 N         143.1319  139.4845  169.6789 N.ar    1  UNL1       -0.0923
      4 C         143.1751  140.9173  169.2370 C.ar    1  UNL1        0.3086
      5 O         143.0632  140.9446  167.7414 O.2     1  UNL1       -0.4048
      6 C         142.5559  138.2183  162.9723 C.ar    1  UNL1        0.0505
      7 C         141.6098  137.6884  164.0087 C.ar    1  UNL1        0.0148
      8 C         141.7415  138.1253  165.4376 C.ar    1  UNL1        0.0060
      9 C         142.8193  139.0919  165.8300 C.ar    1  UNL1        0.0553
     10 C         143.7653  139.6218  164.7936 C.ar    1  UNL1        0.0060
     11 C         143.6336  139.1849  163.3647 C.ar    1  UNL1        0.0148
     12 O         141.0428  139.9180  161.0174 O.2     1  UNL1       -0.2697
     13 C         141.6677  138.6313  160.5659 C.2     1  UNL1        0.2517
     14 N         142.4242  137.7814  161.5433 N.am    1  UNL1       -0.2803
     15 H         142.8344  136.9369  161.2469 H       1  UNL1        0.1552
     16 C         141.5361  138.1944  159.1369 C.ar    1  UNL1        0.0811
     17 C         142.7344  137.6782  158.3970 C.ar    1  UNL1        0.0068
     18 C         142.6027  137.2414  156.9681 C.ar    1  UNL1        0.0003
     19 C         141.2727  137.3208  156.2791 C.ar    1  UNL1        0.0023
     20 C         140.0743  137.8370  157.0190 C.ar    1  UNL1        0.0298
     21 C         140.2060  138.2738  158.4479 C.ar    1  UNL1        0.1445
     22 F         139.0076  138.7900  159.1879 F       1  UNL1       -0.2040
     23 N         143.3070  142.1129  170.1332 N.pl3   1  UNL1       -0.2871
     24 H         144.1476  142.6251  170.1501 H       1  UNL1        0.1512
     25 C         142.1582  142.5280  171.0038 C.3     1  UNL1        0.0925
     26 C         140.7687  142.5738  170.4405 C.3     1  UNL1        0.0386
     27 C         140.5513  142.9767  169.0121 C.3     1  UNL1        0.0739
     28 N         140.0437  141.9738  168.0190 N.3     1  UNL1       -0.2723
     29 C         140.0204  142.3109  166.5575 C.3     1  UNL1        0.0777
     30 C         139.5127  141.3081  165.5644 C.3     1  UNL1        0.0839
     31 C         139.0284  139.9678  166.0326 C.3     1  UNL1        0.2666
     32 F         138.4684  138.5770  165.9879 F       1  UNL1       -0.2042
     33 F         138.8106  139.8221  164.5557 F       1  UNL1       -0.2042
     34 C         139.0517  139.6306  167.4940 C.3     1  UNL1        0.0839
     35 C         139.5593  140.6336  168.4872 C.3     1  UNL1        0.0777
@<TRIPOS>BOND
     1    12    13    2
     2    13    14   am
     3    14     6    1
     4     6     7   ar
     5     7     8   ar
     6     8     9   ar
     7     9     1    1
     8     1     2   ar
     9     2     3   ar
    10     3     4   ar
    11     4    23    1
    12    23    25    1
    13    25    26    1
    14    26    27    1
    15    27    28    1
    16    28    29    1
    17    29    30    1
    18    30    31    1
    19    31    32    1
    20    31    33    1
    21    31    34    1
    22    34    35    1
    23     4     5   ar
    24     9    10   ar
    25    10    11   ar
    26    13    16    1
    27    16    17   ar
    28    17    18   ar
    29    18    19   ar
    30    19    20   ar
    31    20    21   ar
    32    21    22    1
    33    11     6   ar
    34    21    16   ar
    35     5     1   ar
    36    35    28    1
    37    14    15    1
    38    23    24    1
@<TRIPOS>MOLECULE
*****
 35 38 0 0 0
SMALL
GASTEIGER

@<TRIPOS>ATOM
      1 C         141.2689  142.4141  163.2952 C.ar    1  UNL1        0.2512
      2 N         140.9432  142.8067  164.7058 N.ar    1  UNL1       -0.1058
      3 N         141.1446  141.6044  165.5798 N.ar    1  UNL1       -0.0923
      4 C         141.5949  140.4688  164.7094 C.ar    1  UNL1        0.3086
      5 O         141.6717  140.9692  163.2974 O.2     1  UNL1       -0.4048
      6 C         141.0722  145.0995  159.6897 C.ar    1  UNL1        0.0505
      7 C         141.8318  143.8079  159.6222 C.ar    1  UNL1        0.0148
      8 C         141.8973  142.9128  160.8240 C.ar    1  UNL1        0.0060
      9 C         141.2033  143.3093  162.0933 C.ar    1  UNL1        0.0553
     10 C         140.4437  144.6009  162.1608 C.ar    1  UNL1        0.0060
     11 C         140.3781  145.4961  160.9590 C.ar    1  UNL1        0.0148
     12 O         139.2930  144.3850  157.3823 O.2     1  UNL1       -0.2697
     13 C         140.1170  145.6375  157.3342 C.2     1  UNL1        0.2517
     14 N         141.0066  145.9947  158.4878 N.am    1  UNL1       -0.2803
     15 H         141.5474  146.8168  158.4562 H       1  UNL1        0.1552
     16 C         140.0514  146.5327  156.1323 C.ar    1  UNL1        0.0811
     17 C         140.7847  146.1594  154.8782 C.ar    1  UNL1        0.0068
     18 C         140.7191  147.0546  153.6764 C.ar    1  UNL1        0.0003
     19 C         139.9202  148.3230  153.7288 C.ar    1  UNL1        0.0023
     20 C         139.1869  148.6963  154.9829 C.ar    1  UNL1        0.0298
     21 C         139.2525  147.8011  156.1847 C.ar    1  UNL1        0.1445
     22 F         138.5192  148.1744  157.4389 F       1  UNL1       -0.2040
     23 N         141.9126  139.0770  165.1700 N.pl3   1  UNL1       -0.2871
     24 H         142.7998  138.8731  165.5449 H       1  UNL1        0.1512
     25 C         140.8786  137.9961  165.0596 C.3     1  UNL1        0.0925
     26 C         140.3929  137.5578  163.7097 C.3     1  UNL1        0.0386
     27 C         138.9919  137.8744  163.2776 C.3     1  UNL1        0.0739
     28 N         138.6537  139.2471  162.7764 N.3     1  UNL1       -0.2723
     29 C         138.9362  139.6156  161.3501 C.3     1  UNL1        0.0777
     30 C         138.5980  140.9882  160.8489 C.3     1  UNL1        0.0839
     31 C         137.9772  141.9926  161.7740 C.3     1  UNL1        0.2666
     32 F         137.3829  143.2802  162.2628 F       1  UNL1       -0.2042
     33 F         138.0534  142.8082  160.5175 F       1  UNL1       -0.2042
     34 C         137.6946  141.6242  163.2003 C.3     1  UNL1        0.0839
     35 C         138.0329  140.2514  163.7015 C.3     1  UNL1        0.0777
@<TRIPOS>BOND
     1    12    13    2
     2    13    14   am
     3    14     6    1
     4     6     7   ar
     5     7     8   ar
     6     8     9   ar
     7     9     1    1
     8     1     2   ar
     9     2     3   ar
    10     3     4   ar
    11     4    23    1
    12    23    25    1
    13    25    26    1
    14    26    27    1
    15    27    28    1
    16    28    29    1
    17    29    30    1
    18    30    31    1
    19    31    32    1
    20    31    33    1
    21    31    34    1
    22    34    35    1
    23     4     5   ar
    24     9    10   ar
    25    10    11   ar
    26    13    16    1
    27    16    17   ar
    28    17    18   ar
    29    18    19   ar
    30    19    20   ar
    31    20    21   ar
    32    21    22    1
    33    11     6   ar
    34    21    16   ar
    35     5     1   ar
    36    35    28    1
    37    14    15    1
    38    23    24    1
@<TRIPOS>MOLECULE
*****
 35 38 0 0 0
SMALL
GASTEIGER

@<TRIPOS>ATOM
      1 C         140.7990  145.0075  160.5292 C.ar    1  UNL1        0.2512
      2 N         139.7032  145.6463  159.7283 N.ar    1  UNL1       -0.1058
      3 N         140.2340  145.9200  158.3523 N.ar    1  UNL1       -0.0923
      4 C         141.6577  145.4504  158.3028 C.ar    1  UNL1        0.3086
      5 O         142.0069  144.8864  159.6482 O.2     1  UNL1       -0.4048
      6 C         140.5126  143.6862  164.8213 C.ar    1  UNL1        0.0505
      7 C         141.7945  144.2630  164.2981 C.ar    1  UNL1        0.0148
      8 C         141.8900  144.7034  162.8674 C.ar    1  UNL1        0.0060
      9 C         140.7035  144.5670  161.9599 C.ar    1  UNL1        0.0553
     10 C         139.4215  143.9903  162.4831 C.ar    1  UNL1        0.0060
     11 C         139.3260  143.5499  163.9138 C.ar    1  UNL1        0.0148
     12 O         141.7597  141.0964  165.6801 O.2     1  UNL1       -0.2697
     13 C         141.0406  141.9509  166.6814 C.2     1  UNL1        0.2517
     14 N         140.4171  143.2458  166.2521 N.am    1  UNL1       -0.2803
     15 H         139.9451  143.8067  166.9093 H       1  UNL1        0.1552
     16 C         140.9451  141.5105  168.1122 C.ar    1  UNL1        0.0811
     17 C         139.7585  140.7186  168.5755 C.ar    1  UNL1        0.0068
     18 C         139.6630  140.2782  170.0062 C.ar    1  UNL1        0.0003
     19 C         140.7542  140.6297  170.9735 C.ar    1  UNL1        0.0023
     20 C         141.9409  141.4216  170.5102 C.ar    1  UNL1        0.0298
     21 C         142.0363  141.8620  169.0795 C.ar    1  UNL1        0.1445
     22 F         143.2230  142.6540  168.6161 F       1  UNL1       -0.2040
     23 N         142.5718  145.5307  157.1162 N.pl3   1  UNL1       -0.2871
     24 H         143.1998  146.2838  157.0286 H       1  UNL1        0.1512
     25 C         142.5291  144.4635  156.0630 C.3     1  UNL1        0.0925
     26 C         141.9472  143.1181  156.3816 C.3     1  UNL1        0.0386
     27 C         142.7805  142.0879  157.0845 C.3     1  UNL1        0.0739
     28 N         142.5833  141.8361  158.5499 N.3     1  UNL1       -0.2723
     29 C         143.7423  141.9569  159.4944 C.3     1  UNL1        0.0777
     30 C         143.5450  141.7051  160.9599 C.3     1  UNL1        0.0839
     31 C         142.1887  141.3325  161.4809 C.3     1  UNL1        0.2666
     32 F         141.1041  140.9566  162.4465 F       1  UNL1       -0.2042
     33 F         142.9711  141.3228  162.7607 F       1  UNL1       -0.2042
     34 C         141.0297  141.2118  160.5365 C.3     1  UNL1        0.0839
     35 C         141.2269  141.4635  159.0710 C.3     1  UNL1        0.0777
@<TRIPOS>BOND
     1    12    13    2
     2    13    14   am
     3    14     6    1
     4     6     7   ar
     5     7     8   ar
     6     8     9   ar
     7     9     1    1
     8     1     2   ar
     9     2     3   ar
    10     3     4   ar
    11     4    23    1
    12    23    25    1
    13    25    26    1
    14    26    27    1
    15    27    28    1
    16    28    29    1
    17    29    30    1
    18    30    31    1
    19    31    32    1
    20    31    33    1
    21    31    34    1
    22    34    35    1
    23     4     5   ar
    24     9    10   ar
    25    10    11   ar
    26    13    16    1
    27    16    17   ar
    28    17    18   ar
    29    18    19   ar
    30    19    20   ar
    31    20    21   ar
    32    21    22    1
    33    11     6   ar
    34    21    16   ar
    35     5     1   ar
    36    35    28    1
    37    14    15    1
    38    23    24    1
@<TRIPOS>MOLECULE
*****
 35 38 0 0 0
SMALL
GASTEIGER

@<TRIPOS>ATOM
      1 C         139.1043  139.0242  159.1459 C.ar    1  UNL1        0.2512
      2 N         138.4948  139.7829  158.0045 N.ar    1  UNL1       -0.1058
      3 N         138.8226  139.0535  156.7354 N.ar    1  UNL1       -0.0923
      4 C         139.6347  137.8439  157.0926 C.ar    1  UNL1        0.3086
      5 O         139.8088  137.8258  158.5824 O.2     1  UNL1       -0.4048
      6 C         138.8617  140.1462  163.4970 C.ar    1  UNL1        0.0505
      7 C         138.9958  141.2151  162.4532 C.ar    1  UNL1        0.0148
      8 C         139.0766  140.8411  161.0029 C.ar    1  UNL1        0.0060
      9 C         139.0234  139.3982  160.5964 C.ar    1  UNL1        0.0553
     10 C         138.8893  138.3293  161.6401 C.ar    1  UNL1        0.0060
     11 C         138.8085  138.7034  163.0905 C.ar    1  UNL1        0.0148
     12 O         141.3571  140.2586  165.1586 O.2     1  UNL1       -0.2697
     13 C         140.0285  140.5764  165.7782 C.2     1  UNL1        0.2517
     14 N         138.7808  140.5203  164.9474 N.am    1  UNL1       -0.2803
     15 H         137.9089  140.7289  165.3541 H       1  UNL1        0.1552
     16 C         139.9476  140.9504  167.2286 C.ar    1  UNL1        0.0811
     17 C         139.3407  139.9982  168.2160 C.ar    1  UNL1        0.0068
     18 C         139.2599  140.3723  169.6663 C.ar    1  UNL1        0.0003
     19 C         139.7860  141.6985  170.1293 C.ar    1  UNL1        0.0023
     20 C         140.3929  142.6507  169.1419 C.ar    1  UNL1        0.0298
     21 C         140.4737  142.2767  167.6916 C.ar    1  UNL1        0.1445
     22 F         141.0807  143.2289  166.7041 F       1  UNL1       -0.2040
     23 N         140.1774  136.8304  156.1291 N.pl3   1  UNL1       -0.2871
     24 H         139.7269  135.9615  156.0230 H       1  UNL1        0.1512
     25 C         141.4066  137.1408  155.3274 C.3     1  UNL1        0.0925
     26 C         142.3475  138.2165  155.7831 C.3     1  UNL1        0.0386
     27 C         143.3330  137.9362  156.8787 C.3     1  UNL1        0.0739
     28 N         143.0611  138.4172  158.2731 N.3     1  UNL1       -0.2723
     29 C         142.9315  137.4300  159.3951 C.3     1  UNL1        0.0777
     30 C         142.6596  137.9110  160.7896 C.3     1  UNL1        0.0839
     31 C         142.5172  139.3791  161.0622 C.3     1  UNL1        0.2666
     32 F         142.3041  140.6588  161.8153 F       1  UNL1       -0.2042
     33 F         142.3136  138.8364  162.4457 F       1  UNL1       -0.2042
     34 C         142.6467  140.3662  159.9403 C.3     1  UNL1        0.0839
     35 C         142.9187  139.8853  158.5458 C.3     1  UNL1        0.0777
@<TRIPOS>BOND
     1    12    13    2
     2    13    14   am
     3    14     6    1
     4     6     7   ar
     5     7     8   ar
     6     8     9   ar
     7     9     1    1
     8     1     2   ar
     9     2     3   ar
    10     3     4   ar
    11     4    23    1
    12    23    25    1
    13    25    26    1
    14    26    27    1
    15    27    28    1
    16    28    29    1
    17    29    30    1
    18    30    31    1
    19    31    32    1
    20    31    33    1
    21    31    34    1
    22    34    35    1
    23     4     5   ar
    24     9    10   ar
    25    10    11   ar
    26    13    16    1
    27    16    17   ar
    28    17    18   ar
    29    18    19   ar
    30    19    20   ar
    31    20    21   ar
    32    21    22    1
    33    11     6   ar
    34    21    16   ar
    35     5     1   ar
    36    35    28    1
    37    14    15    1
    38    23    24    1
@<TRIPOS>MOLECULE
*****
 35 38 0 0 0
SMALL
GASTEIGER

@<TRIPOS>ATOM
      1 C         143.2574  138.6915  159.7853 C.ar    1  UNL1        0.2512
      2 N         143.9914  139.5108  158.7655 N.ar    1  UNL1       -0.1058
      3 N         143.6945  138.9393  157.4108 N.ar    1  UNL1       -0.0923
      4 C         142.7771  137.7666  157.5934 C.ar    1  UNL1        0.3086
      5 O         142.5069  137.6135  159.0609 O.2     1  UNL1       -0.4048
      6 C         143.2994  139.3514  164.2364 C.ar    1  UNL1        0.0505
      7 C         142.5060  138.2198  163.6535 C.ar    1  UNL1        0.0148
      8 C         142.4920  137.9998  162.1698 C.ar    1  UNL1        0.0060
      9 C         143.2714  138.9115  161.2690 C.ar    1  UNL1        0.0553
     10 C         144.0648  140.0431  161.8520 C.ar    1  UNL1        0.0060
     11 C         144.0788  140.2631  163.3356 C.ar    1  UNL1        0.0148
     12 O         141.3215  141.2240  165.4940 O.2     1  UNL1       -0.2697
     13 C         142.3245  140.5077  166.3489 C.2     1  UNL1        0.2517
     14 N         143.3135  139.5714  165.7202 N.am    1  UNL1       -0.2803
     15 H         143.9718  139.1013  166.2813 H       1  UNL1        0.1552
     16 C         142.3386  140.7277  167.8327 C.ar    1  UNL1        0.0811
     17 C         141.6047  139.7833  168.7379 C.ar    1  UNL1        0.0068
     18 C         141.6187  140.0034  170.2216 C.ar    1  UNL1        0.0003
     19 C         142.3667  141.1678  170.8000 C.ar    1  UNL1        0.0023
     20 C         143.1006  142.1122  169.8948 C.ar    1  UNL1        0.0298
     21 C         143.0865  141.8921  168.4112 C.ar    1  UNL1        0.1445
     22 F         143.8205  142.8366  167.5059 F       1  UNL1       -0.2040
     23 N         142.2265  136.8994  156.5003 N.pl3   1  UNL1       -0.2871
     24 H         142.7641  136.1554  156.1443 H       1  UNL1        0.1512
     25 C         140.8569  137.1657  155.9496 C.3     1  UNL1        0.0925
     26 C         139.7568  137.6200  156.8626 C.3     1  UNL1        0.0386
     27 C         139.5295  139.0847  157.0922 C.3     1  UNL1        0.0739
     28 N         139.8020  139.6838  158.4400 N.3     1  UNL1       -0.2723
     29 C         139.2810  139.0148  159.6774 C.3     1  UNL1        0.0777
     30 C         139.5535  139.6138  161.0252 C.3     1  UNL1        0.0839
     31 C         140.3470  140.8819  161.1359 C.3     1  UNL1        0.2666
     32 F         141.0436  142.0597  161.7503 F       1  UNL1       -0.2042
     33 F         140.0679  140.6219  162.5866 F       1  UNL1       -0.2042
     34 C         140.8680  141.5509  159.8986 C.3     1  UNL1        0.0839
     35 C         140.5955  140.9519  158.5506 C.3     1  UNL1        0.0777
@<TRIPOS>BOND
     1    12    13    2
     2    13    14   am
     3    14     6    1
     4     6     7   ar
     5     7     8   ar
     6     8     9   ar
     7     9     1    1
     8     1     2   ar
     9     2     3   ar
    10     3     4   ar
    11     4    23    1
    12    23    25    1
    13    25    26    1
    14    26    27    1
    15    27    28    1
    16    28    29    1
    17    29    30    1
    18    30    31    1
    19    31    32    1
    20    31    33    1
    21    31    34    1
    22    34    35    1
    23     4     5   ar
    24     9    10   ar
    25    10    11   ar
    26    13    16    1
    27    16    17   ar
    28    17    18   ar
    29    18    19   ar
    30    19    20   ar
    31    20    21   ar
    32    21    22    1
    33    11     6   ar
    34    21    16   ar
    35     5     1   ar
    36    35    28    1
    37    14    15    1
    38    23    24    1
@<TRIPOS>MOLECULE
*****
 35 38 0 0 0
SMALL
GASTEIGER

@<TRIPOS>ATOM
      1 C         143.4700  142.8228  160.3546 C.ar    1  UNL1        0.2512
      2 N         144.1922  141.8463  159.4743 N.ar    1  UNL1       -0.1058
      3 N         144.1068  142.3443  158.0620 N.ar    1  UNL1       -0.0923
      4 C         143.3317  143.6286  158.0694 C.ar    1  UNL1        0.3086
      5 O         142.9382  143.9243  159.4863 O.2     1  UNL1       -0.4048
      6 C         142.9841  142.5035  164.8169 C.ar    1  UNL1        0.0505
      7 C         142.8031  141.2900  163.9540 C.ar    1  UNL1        0.0148
      8 C         142.9651  141.3964  162.4667 C.ar    1  UNL1        0.0060
      9 C         143.3080  142.7164  161.8421 C.ar    1  UNL1        0.0553
     10 C         143.4890  143.9299  162.7049 C.ar    1  UNL1        0.0060
     11 C         143.3270  143.8235  164.1923 C.ar    1  UNL1        0.0148
     12 O         140.2730  141.9991  165.9983 O.2     1  UNL1       -0.2697
     13 C         141.4666  142.1449  166.8951 C.2     1  UNL1        0.2517
     14 N         142.8221  142.3971  166.3044 N.am    1  UNL1       -0.2803
     15 H         143.6055  142.4928  166.8929 H       1  UNL1        0.1552
     16 C         141.3046  142.0385  168.3825 C.ar    1  UNL1        0.0811
     17 C         140.3748  142.9684  169.1041 C.ar    1  UNL1        0.0068
     18 C         140.2128  142.8619  170.5915 C.ar    1  UNL1        0.0003
     19 C         140.9808  141.8257  171.3573 C.ar    1  UNL1        0.0023
     20 C         141.9106  140.8959  170.6358 C.ar    1  UNL1        0.0298
     21 C         142.0726  141.0023  169.1484 C.ar    1  UNL1        0.1445
     22 F         143.0025  140.0724  168.4267 F       1  UNL1       -0.2040
     23 N         143.0072  144.4695  156.8704 N.pl3   1  UNL1       -0.2871
     24 H         143.6701  145.1099  156.5243 H       1  UNL1        0.1512
     25 C         141.6728  144.3347  156.1987 C.3     1  UNL1        0.0925
     26 C         140.4472  144.9118  156.8428 C.3     1  UNL1        0.0386
     27 C         139.6031  144.0614  157.7452 C.3     1  UNL1        0.0739
     28 N         139.7378  144.1847  159.2340 N.3     1  UNL1       -0.2723
     29 C         139.4730  142.9976  160.1119 C.3     1  UNL1        0.0777
     30 C         139.6077  143.1208  161.6007 C.3     1  UNL1        0.0839
     31 C         140.0072  144.4312  162.2117 C.3     1  UNL1        0.2666
     32 F         140.3570  145.4524  163.2532 F       1  UNL1       -0.2042
     33 F         139.8639  143.5987  163.4513 F       1  UNL1       -0.2042
     34 C         140.2720  145.6183  161.3339 C.3     1  UNL1        0.0839
     35 C         140.1373  145.4950  159.8450 C.3     1  UNL1        0.0777
@<TRIPOS>BOND
     1    12    13    2
     2    13    14   am
     3    14     6    1
     4     6     7   ar
     5     7     8   ar
     6     8     9   ar
     7     9     1    1
     8     1     2   ar
     9     2     3   ar
    10     3     4   ar
    11     4    23    1
    12    23    25    1
    13    25    26    1
    14    26    27    1
    15    27    28    1
    16    28    29    1
    17    29    30    1
    18    30    31    1
    19    31    32    1
    20    31    33    1
    21    31    34    1
    22    34    35    1
    23     4     5   ar
    24     9    10   ar
    25    10    11   ar
    26    13    16    1
    27    16    17   ar
    28    17    18   ar
    29    18    19   ar
    30    19    20   ar
    31    20    21   ar
    32    21    22    1
    33    11     6   ar
    34    21    16   ar
    35     5     1   ar
    36    35    28    1
    37    14    15    1
    38    23    24    1
