@<TRIPOS>MOLECULE
*****
 32 34 0 0 0
SMALL
GASTEIGER

@<TRIPOS>ATOM
      1 C         138.4907  142.4287  158.2942 C.ar    1  UNL1        0.1140
      2 C         138.4879  142.4486  159.7941 C.ar    1  UNL1        0.0275
      3 C         139.3839  143.5641  160.2444 C.ar    1  UNL1        0.0690
      4 C         139.9405  144.2336  159.0229 C.ar    1  UNL1        0.0717
      5 N         139.3884  143.5318  157.8176 N.ar    1  UNL1       -0.3223
      6 C         139.7745  143.9879  156.4418 C.3     1  UNL1        0.1379
      7 C         140.7126  145.1459  156.2713 C.3     1  UNL1        0.1671
      8 O         141.2647  145.8476  157.4766 O.3     1  UNL1       -0.3454
      9 C         140.8786  145.3915  158.8524 C.3     1  UNL1        0.1857
     10 N         136.5562  141.9585  156.6247 N.am    1  UNL1       -0.2903
     11 C         137.7294  141.4733  157.4237 C.2     1  UNL1        0.2621
     12 O         138.1411  140.0327  157.3522 O.2     1  UNL1       -0.2685
     13 H         136.2859  142.9040  156.6716 H       1  UNL1        0.1503
     14 C         135.7949  141.0032  155.7542 C.3     1  UNL1        0.2008
     15 C         134.3879  140.6234  156.1093 C.2     1  UNL1        0.3373
     16 O         133.2342  141.3257  155.4570 O.2     1  UNL1       -0.2482
     17 O         134.1347  139.5413  157.1167 O.3     1  UNL1       -0.4473
     18 C         131.8379  138.3748  156.7784 C.3     1  UNL1        0.0513
     19 C         132.7367  139.2646  157.5849 C.3     1  UNL1        0.2086
     20 C         139.6727  143.9436  161.6666 C.2     1  UNL1        0.2472
     21 O         139.6761  145.3878  162.0716 O.2     1  UNL1       -0.2701
     22 N         139.9581  142.8787  162.6838 N.am    1  UNL1       -0.2987
     23 H         139.9558  141.9307  162.4180 H       1  UNL1        0.1500
     24 C         140.2468  143.2581  164.1060 C.3     1  UNL1        0.0943
     25 C         141.6659  143.3981  164.5716 C.ar    1  UNL1       -0.0045
     26 C         142.2026  142.4787  165.6283 C.ar    1  UNL1       -0.0027
     27 C         143.6216  142.6186  166.0938 C.ar    1  UNL1       -0.0003
     28 C         144.5039  143.6779  165.5027 C.ar    1  UNL1       -0.0000
     29 C         143.9672  144.5973  164.4460 C.ar    1  UNL1       -0.0003
     30 C         142.5482  144.4574  163.9804 C.ar    1  UNL1       -0.0027
     31 C         139.1166  143.4977  165.0626 C.3     1  UNL1        0.0241
     32 C         138.7326  144.8993  165.4339 C.3     1  UNL1        0.0021
@<TRIPOS>BOND
     1    18    19    1
     2    19    17    1
     3    17    15    1
     4    15    16    2
     5    15    14    1
     6    14    10    1
     7    10    11   am
     8    11    12    2
     9    11     1    1
    10     1     2   ar
    11     2     3   ar
    12     3    20    1
    13    20    21    2
    14    20    22   am
    15    22    24    1
    16    24    31    1
    17    31    32    1
    18    24    25    1
    19    25    26   ar
    20    26    27   ar
    21    27    28   ar
    22    28    29   ar
    23    29    30   ar
    24     3     4   ar
    25     4     5   ar
    26     5     6    1
    27     6     7    1
    28     7     8    1
    29     8     9    1
    30     5     1   ar
    31    30    25   ar
    32     9     4    1
    33    10    13    1
    34    22    23    1
@<TRIPOS>MOLECULE
*****
 32 34 0 0 0
SMALL
GASTEIGER

@<TRIPOS>ATOM
      1 C         142.7480  138.2945  158.3704 C.ar    1  UNL1        0.1140
      2 C         142.3144  138.0970  159.7927 C.ar    1  UNL1        0.0275
      3 C         142.7394  139.3020  160.5783 C.ar    1  UNL1        0.0690
      4 C         143.4357  140.2442  159.6416 C.ar    1  UNL1        0.0717
      5 N         143.4410  139.6215  158.2770 N.ar    1  UNL1       -0.3223
      6 C         144.0762  140.3433  157.1257 C.3     1  UNL1        0.1379
      7 C         144.7061  141.6878  157.3390 C.3     1  UNL1        0.1671
      8 O         144.7007  142.3105  158.7037 O.3     1  UNL1       -0.3454
      9 C         144.0656  141.5887  159.8550 C.3     1  UNL1        0.1857
     10 N         143.7020  136.7233  156.5342 N.am    1  UNL1       -0.2903
     11 C         142.5274  137.3336  157.2399 C.2     1  UNL1        0.2621
     12 O         141.1323  136.9829  156.8150 O.2     1  UNL1       -0.2685
     13 H         144.6177  136.9534  156.8130 H       1  UNL1        0.1503
     14 C         143.4814  135.7624  155.4036 C.3     1  UNL1        0.2008
     15 C         143.1762  134.3225  155.6921 C.2     1  UNL1        0.3373
     16 O         142.9787  133.3566  154.5616 O.2     1  UNL1       -0.2482
     17 O         143.0684  133.8484  157.1112 O.3     1  UNL1       -0.4473
     18 C         145.0158  132.1593  157.4353 C.3     1  UNL1        0.0513
     19 C         144.2975  133.4089  157.8505 C.3     1  UNL1        0.2086
     20 C         142.5087  139.5256  162.0435 C.2     1  UNL1        0.2472
     21 O         142.0562  140.8685  162.5352 O.2     1  UNL1       -0.2701
     22 N         142.7304  138.4062  163.0171 N.am    1  UNL1       -0.2987
     23 H         143.0274  137.5247  162.6945 H       1  UNL1        0.1500
     24 C         142.4997  138.6298  164.4823 C.3     1  UNL1        0.0943
     25 C         141.1028  138.6392  165.0287 C.ar    1  UNL1       -0.0045
     26 C         140.1624  137.5169  164.7028 C.ar    1  UNL1       -0.0027
     27 C         138.7655  137.5263  165.2492 C.ar    1  UNL1       -0.0003
     28 C         138.3090  138.6579  166.1215 C.ar    1  UNL1       -0.0000
     29 C         139.2493  139.7802  166.4475 C.ar    1  UNL1       -0.0003
     30 C         140.6462  139.7708  165.9011 C.ar    1  UNL1       -0.0027
     31 C         143.6659  138.8440  165.4010 C.3     1  UNL1        0.0241
     32 C         143.8290  137.9837  166.6189 C.3     1  UNL1        0.0021
@<TRIPOS>BOND
     1    18    19    1
     2    19    17    1
     3    17    15    1
     4    15    16    2
     5    15    14    1
     6    14    10    1
     7    10    11   am
     8    11    12    2
     9    11     1    1
    10     1     2   ar
    11     2     3   ar
    12     3    20    1
    13    20    21    2
    14    20    22   am
    15    22    24    1
    16    24    31    1
    17    31    32    1
    18    24    25    1
    19    25    26   ar
    20    26    27   ar
    21    27    28   ar
    22    28    29   ar
    23    29    30   ar
    24     3     4   ar
    25     4     5   ar
    26     5     6    1
    27     6     7    1
    28     7     8    1
    29     8     9    1
    30     5     1   ar
    31    30    25   ar
    32     9     4    1
    33    10    13    1
    34    22    23    1
@<TRIPOS>MOLECULE
*****
 32 34 0 0 0
SMALL
GASTEIGER

@<TRIPOS>ATOM
      1 C         138.7325  142.6742  158.2046 C.ar    1  UNL1        0.1140
      2 C         138.2056  142.4713  159.5943 C.ar    1  UNL1        0.0275
      3 C         139.0186  143.3197  160.5267 C.ar    1  UNL1        0.0690
      4 C         140.0478  144.0470  159.7133 C.ar    1  UNL1        0.0717
      5 N         139.8710  143.6480  158.2781 N.ar    1  UNL1       -0.3223
      6 C         140.7696  144.2231  157.2237 C.3     1  UNL1        0.1379
      7 C         141.8450  145.1970  157.6044 C.3     1  UNL1        0.1671
      8 O         142.0218  145.5960  159.0395 O.3     1  UNL1       -0.3454
      9 C         141.1232  145.0209  160.0939 C.3     1  UNL1        0.1857
     10 N         136.7596  142.1321  156.6034 N.am    1  UNL1       -0.2903
     11 C         138.2122  142.0184  156.9599 C.2     1  UNL1        0.2621
     12 O         139.1444  141.2490  156.0718 O.2     1  UNL1       -0.2685
     13 H         136.1477  142.6371  157.1863 H       1  UNL1        0.1503
     14 C         136.2392  141.4764  155.3587 C.3     1  UNL1        0.2008
     15 C         135.4778  140.1874  155.4523 C.2     1  UNL1        0.3373
     16 O         135.5563  139.1872  154.3372 O.2     1  UNL1       -0.2482
     17 O         134.6380  139.8987  156.6612 O.3     1  UNL1       -0.4473
     18 C         132.5990  141.1837  155.6908 C.3     1  UNL1        0.0513
     19 C         133.1602  140.1541  156.6262 C.3     1  UNL1        0.2086
     20 C         138.8346  143.4228  162.0118 C.2     1  UNL1        0.2472
     21 O         137.6087  144.0811  162.5718 O.2     1  UNL1       -0.2701
     22 N         139.8766  142.8675  162.9370 N.am    1  UNL1       -0.2987
     23 H         140.6813  142.4354  162.5695 H       1  UNL1        0.1500
     24 C         139.6926  142.9705  164.4221 C.3     1  UNL1        0.0943
     25 C         139.3798  141.7434  165.2260 C.ar    1  UNL1       -0.0045
     26 C         138.3885  140.7422  164.7114 C.ar    1  UNL1       -0.0027
     27 C         138.0757  139.5151  165.5154 C.ar    1  UNL1       -0.0003
     28 C         138.7542  139.2892  166.8339 C.ar    1  UNL1       -0.0000
     29 C         139.7455  140.2904  167.3486 C.ar    1  UNL1       -0.0003
     30 C         140.0583  141.5175  166.5446 C.ar    1  UNL1       -0.0027
     31 C         139.8214  144.3007  165.1032 C.3     1  UNL1        0.0241
     32 C         138.6047  144.9796  165.6590 C.3     1  UNL1        0.0021
@<TRIPOS>BOND
     1    18    19    1
     2    19    17    1
     3    17    15    1
     4    15    16    2
     5    15    14    1
     6    14    10    1
     7    10    11   am
     8    11    12    2
     9    11     1    1
    10     1     2   ar
    11     2     3   ar
    12     3    20    1
    13    20    21    2
    14    20    22   am
    15    22    24    1
    16    24    31    1
    17    31    32    1
    18    24    25    1
    19    25    26   ar
    20    26    27   ar
    21    27    28   ar
    22    28    29   ar
    23    29    30   ar
    24     3     4   ar
    25     4     5   ar
    26     5     6    1
    27     6     7    1
    28     7     8    1
    29     8     9    1
    30     5     1   ar
    31    30    25   ar
    32     9     4    1
    33    10    13    1
    34    22    23    1
@<TRIPOS>MOLECULE
*****
 32 34 0 0 0
SMALL
GASTEIGER

@<TRIPOS>ATOM
      1 C         141.0864  138.3828  158.3693 C.ar    1  UNL1        0.1140
      2 C         141.3760  138.4768  159.8381 C.ar    1  UNL1        0.0275
      3 C         140.4066  139.4503  160.4403 C.ar    1  UNL1        0.0690
      4 C         139.5179  139.9579  159.3437 C.ar    1  UNL1        0.0717
      5 N         139.9380  139.2982  158.0637 N.ar    1  UNL1       -0.3223
      6 C         139.2206  139.6161  156.7854 C.3     1  UNL1        0.1379
      7 C         138.0831  140.5938  156.7870 C.3     1  UNL1        0.1671
      8 O         137.6630  141.2536  158.0669 O.3     1  UNL1       -0.3454
      9 C         138.3803  140.9356  159.3452 C.3     1  UNL1        0.1857
     10 N         141.0683  136.5009  156.5781 N.am    1  UNL1       -0.2903
     11 C         141.8169  137.5242  157.3798 C.2     1  UNL1        0.2621
     12 O         143.2959  137.6887  157.1920 O.2     1  UNL1       -0.2685
     13 H         140.0976  136.3929  156.7014 H       1  UNL1        0.1503
     14 C         141.7989  135.6423  155.5886 C.3     1  UNL1        0.2008
     15 C         142.3924  134.3354  156.0241 C.2     1  UNL1        0.3373
     16 O         141.5813  133.0767  155.9357 O.2     1  UNL1       -0.2482
     17 O         143.7972  134.2872  156.5479 O.3     1  UNL1       -0.4473
     18 C         145.0592  132.4713  157.9118 C.3     1  UNL1        0.0513
     19 C         144.0872  133.6124  157.8559 C.3     1  UNL1        0.2086
     20 C         140.3379  139.8466  161.8853 C.2     1  UNL1        0.2472
     21 O         141.5570  140.3838  162.5745 O.2     1  UNL1       -0.2701
     22 N         139.0499  139.7057  162.6413 N.am    1  UNL1       -0.2987
     23 H         138.2497  139.3531  162.1890 H       1  UNL1        0.1500
     24 C         138.9813  140.1020  164.0864 C.3     1  UNL1        0.0943
     25 C         138.8919  141.5511  164.4632 C.ar    1  UNL1       -0.0045
     26 C         139.9276  142.1572  165.3633 C.ar    1  UNL1       -0.0027
     27 C         139.8382  143.6063  165.7401 C.ar    1  UNL1       -0.0003
     28 C         138.7132  144.4494  165.2170 C.ar    1  UNL1       -0.0000
     29 C         137.6776  143.8433  164.3169 C.ar    1  UNL1       -0.0003
     30 C         137.7669  142.3942  163.9401 C.ar    1  UNL1       -0.0027
     31 C         139.0019  139.0491  165.1545 C.3     1  UNL1        0.0241
     32 C         138.0080  139.0998  166.2768 C.3     1  UNL1        0.0021
@<TRIPOS>BOND
     1    18    19    1
     2    19    17    1
     3    17    15    1
     4    15    16    2
     5    15    14    1
     6    14    10    1
     7    10    11   am
     8    11    12    2
     9    11     1    1
    10     1     2   ar
    11     2     3   ar
    12     3    20    1
    13    20    21    2
    14    20    22   am
    15    22    24    1
    16    24    31    1
    17    31    32    1
    18    24    25    1
    19    25    26   ar
    20    26    27   ar
    21    27    28   ar
    22    28    29   ar
    23    29    30   ar
    24     3     4   ar
    25     4     5   ar
    26     5     6    1
    27     6     7    1
    28     7     8    1
    29     8     9    1
    30     5     1   ar
    31    30    25   ar
    32     9     4    1
    33    10    13    1
    34    22    23    1
@<TRIPOS>MOLECULE
*****
 32 34 0 0 0
SMALL
GASTEIGER

@<TRIPOS>ATOM
      1 C         141.6856  139.0855  160.1864 C.ar    1  UNL1        0.1140
      2 C         142.7801  139.7227  160.9901 C.ar    1  UNL1        0.0275
      3 C         142.3020  139.8489  162.4063 C.ar    1  UNL1        0.0690
      4 C         140.9119  139.2897  162.4778 C.ar    1  UNL1        0.0717
      5 N         140.5310  138.8180  161.1058 N.ar    1  UNL1       -0.3223
      6 C         139.1819  138.2057  160.8709 C.3     1  UNL1        0.1379
      7 C         138.2139  138.0652  162.0080 C.3     1  UNL1        0.1671
      8 O         138.5948  138.5370  163.3800 O.3     1  UNL1       -0.3454
      9 C         139.9438  139.1493  163.6149 C.3     1  UNL1        0.1857
     10 N         142.4976  137.5723  158.2367 N.am    1  UNL1       -0.2903
     11 C         141.7367  138.7711  158.7206 C.2     1  UNL1        0.2621
     12 O         141.0269  139.6553  157.7387 O.2     1  UNL1       -0.2685
     13 H         142.9635  136.9919  158.8812 H       1  UNL1        0.1503
     14 C         142.5487  137.2579  156.7709 C.3     1  UNL1        0.2008
     15 C         143.6977  136.4721  156.2121 C.2     1  UNL1        0.3373
     16 O         144.8288  137.1808  155.5279 O.2     1  UNL1       -0.2482
     17 O         143.7154  134.9774  156.3376 O.3     1  UNL1       -0.4473
     18 C         141.8514  134.1059  154.7512 C.3     1  UNL1        0.0513
     19 C         142.4561  134.1916  156.1213 C.3     1  UNL1        0.2086
     20 C         143.0777  140.4319  163.5501 C.2     1  UNL1        0.2472
     21 O         144.4786  139.9689  163.8196 O.2     1  UNL1       -0.2701
     22 N         142.4522  141.4781  164.4246 N.am    1  UNL1       -0.2987
     23 H         141.5327  141.7820  164.2477 H       1  UNL1        0.1500
     24 C         143.2279  142.0611  165.5684 C.3     1  UNL1        0.0943
     25 C         143.0637  141.4994  166.9496 C.ar    1  UNL1       -0.0045
     26 C         142.6456  140.0706  167.1333 C.ar    1  UNL1       -0.0027
     27 C         142.4814  139.5090  168.5145 C.ar    1  UNL1       -0.0003
     28 C         142.7354  140.3761  169.7119 C.ar    1  UNL1       -0.0000
     29 C         143.1535  141.8048  169.5281 C.ar    1  UNL1       -0.0003
     30 C         143.3177  142.3665  168.1470 C.ar    1  UNL1       -0.0027
     31 C         144.1678  143.2057  165.3311 C.3     1  UNL1        0.0241
     32 C         143.8152  144.2716  164.3362 C.3     1  UNL1        0.0021
@<TRIPOS>BOND
     1    18    19    1
     2    19    17    1
     3    17    15    1
     4    15    16    2
     5    15    14    1
     6    14    10    1
     7    10    11   am
     8    11    12    2
     9    11     1    1
    10     1     2   ar
    11     2     3   ar
    12     3    20    1
    13    20    21    2
    14    20    22   am
    15    22    24    1
    16    24    31    1
    17    31    32    1
    18    24    25    1
    19    25    26   ar
    20    26    27   ar
    21    27    28   ar
    22    28    29   ar
    23    29    30   ar
    24     3     4   ar
    25     4     5   ar
    26     5     6    1
    27     6     7    1
    28     7     8    1
    29     8     9    1
    30     5     1   ar
    31    30    25   ar
    32     9     4    1
    33    10    13    1
    34    22    23    1
@<TRIPOS>MOLECULE
*****
 32 34 0 0 0
SMALL
GASTEIGER

@<TRIPOS>ATOM
      1 C         141.7683  141.7481  161.8210 C.ar    1  UNL1        0.1140
      2 C         141.1447  141.7566  163.1852 C.ar    1  UNL1        0.0275
      3 C         141.5350  140.4864  163.8811 C.ar    1  UNL1        0.0690
      4 C         142.3998  139.6928  162.9470 C.ar    1  UNL1        0.0717
      5 N         142.5440  140.4726  161.6738 N.ar    1  UNL1       -0.3223
      6 C         143.3629  139.9206  160.5448 C.3     1  UNL1        0.1379
      7 C         144.0376  138.5887  160.6891 C.3     1  UNL1        0.1671
      8 O         143.8934  137.8089  161.9624 O.3     1  UNL1       -0.3454
      9 C         143.0745  138.3610  163.0913 C.3     1  UNL1        0.1857
     10 N         140.4104  142.8984  159.9280 N.am    1  UNL1       -0.2903
     11 C         141.6390  142.8258  160.7857 C.2     1  UNL1        0.2621
     12 O         142.7380  143.8310  160.6081 O.2     1  UNL1       -0.2685
     13 H         139.6891  142.2386  160.0446 H       1  UNL1        0.1503
     14 C         140.2811  143.9761  158.8928 C.3     1  UNL1        0.2008
     15 C         140.5535  145.4048  159.2595 C.2     1  UNL1        0.3373
     16 O         141.7220  146.1248  158.6544 O.2     1  UNL1       -0.2482
     17 O         139.6573  146.1135  160.2314 O.3     1  UNL1       -0.4473
     18 C         139.2281  145.1215  162.5940 C.3     1  UNL1        0.0513
     19 C         139.9634  146.0749  161.6994 C.3     1  UNL1        0.2086
     20 C         141.1314  140.0808  165.2677 C.2     1  UNL1        0.2472
     21 O         141.9047  139.0206  165.9941 O.2     1  UNL1       -0.2701
     22 N         139.9542  140.7356  165.9279 N.am    1  UNL1       -0.2987
     23 H         139.4466  141.4314  165.4511 H       1  UNL1        0.1500
     24 C         139.5506  140.3300  167.3145 C.3     1  UNL1        0.0943
     25 C         140.2197  140.9541  168.5031 C.ar    1  UNL1       -0.0045
     26 C         140.6725  142.3829  168.4445 C.ar    1  UNL1       -0.0027
     27 C         141.3415  143.0070  169.6331 C.ar    1  UNL1       -0.0003
     28 C         141.5577  142.2023  170.8804 C.ar    1  UNL1       -0.0000
     29 C         141.1049  140.7735  170.9391 C.ar    1  UNL1       -0.0003
     30 C         140.4359  140.1494  169.7504 C.ar    1  UNL1       -0.0027
     31 C         138.4779  139.3004  167.5124 C.3     1  UNL1        0.0241
     32 C         138.0079  138.4745  166.3517 C.3     1  UNL1        0.0021
@<TRIPOS>BOND
     1    18    19    1
     2    19    17    1
     3    17    15    1
     4    15    16    2
     5    15    14    1
     6    14    10    1
     7    10    11   am
     8    11    12    2
     9    11     1    1
    10     1     2   ar
    11     2     3   ar
    12     3    20    1
    13    20    21    2
    14    20    22   am
    15    22    24    1
    16    24    31    1
    17    31    32    1
    18    24    25    1
    19    25    26   ar
    20    26    27   ar
    21    27    28   ar
    22    28    29   ar
    23    29    30   ar
    24     3     4   ar
    25     4     5   ar
    26     5     6    1
    27     6     7    1
    28     7     8    1
    29     8     9    1
    30     5     1   ar
    31    30    25   ar
    32     9     4    1
    33    10    13    1
    34    22    23    1
@<TRIPOS>MOLECULE
*****
 32 34 0 0 0
SMALL
GASTEIGER

@<TRIPOS>ATOM
      1 C         142.4318  143.0627  161.1610 C.ar    1  UNL1        0.1140
      2 C         142.5674  141.9720  162.1817 C.ar    1  UNL1        0.0275
      3 C         141.5787  142.2377  163.2780 C.ar    1  UNL1        0.0690
      4 C         140.8321  143.4926  162.9349 C.ar    1  UNL1        0.0717
      5 N         141.3594  144.0025  161.6265 N.ar    1  UNL1       -0.3223
      6 C         140.7948  145.2567  161.0280 C.3     1  UNL1        0.1379
      7 C         139.7030  146.0010  161.7379 C.3     1  UNL1        0.1671
      8 O         139.1758  145.4910  163.0463 O.3     1  UNL1       -0.3454
      9 C         139.7403  144.2369  163.6448 C.3     1  UNL1        0.1857
     10 N         144.4760  142.3788  159.7106 N.am    1  UNL1       -0.2903
     11 C         143.2288  143.1912  159.8968 C.2     1  UNL1        0.2621
     12 O         142.7787  144.1320  158.8187 O.2     1  UNL1       -0.2685
     13 H         144.7715  141.7613  160.4181 H       1  UNL1        0.1503
     14 C         145.2730  142.5072  158.4463 C.3     1  UNL1        0.2008
     15 C         144.9898  141.6000  157.2859 C.2     1  UNL1        0.3373
     16 O         144.7554  140.1367  157.5177 O.2     1  UNL1       -0.2482
     17 O         144.9412  142.1561  155.8936 O.3     1  UNL1       -0.4473
     18 C         147.4917  141.7862  155.5646 C.3     1  UNL1        0.0513
     19 C         146.2151  142.4645  155.1642 C.3     1  UNL1        0.2086
     20 C         141.3727  141.3961  164.5026 C.2     1  UNL1        0.2472
     21 O         140.1184  140.5879  164.6549 O.2     1  UNL1       -0.2701
     22 N         142.4212  141.3629  165.5749 N.am    1  UNL1       -0.2987
     23 H         143.2445  141.8934  165.4749 H       1  UNL1        0.1500
     24 C         142.2152  140.5214  166.7994 C.3     1  UNL1        0.0943
     25 C         141.3592  141.0279  167.9222 C.ar    1  UNL1       -0.0045
     26 C         140.2972  140.1477  168.5115 C.ar    1  UNL1       -0.0027
     27 C         139.4412  140.6542  169.6343 C.ar    1  UNL1       -0.0003
     28 C         139.6473  142.0409  170.1679 C.ar    1  UNL1       -0.0000
     29 C         140.7094  142.9210  169.5786 C.ar    1  UNL1       -0.0003
     30 C         141.5653  142.4146  168.4558 C.ar    1  UNL1       -0.0027
     31 C         142.8652  139.1734  166.9010 C.3     1  UNL1        0.0241
     32 C         142.9869  138.3059  165.6834 C.3     1  UNL1        0.0021
@<TRIPOS>BOND
     1    18    19    1
     2    19    17    1
     3    17    15    1
     4    15    16    2
     5    15    14    1
     6    14    10    1
     7    10    11   am
     8    11    12    2
     9    11     1    1
    10     1     2   ar
    11     2     3   ar
    12     3    20    1
    13    20    21    2
    14    20    22   am
    15    22    24    1
    16    24    31    1
    17    31    32    1
    18    24    25    1
    19    25    26   ar
    20    26    27   ar
    21    27    28   ar
    22    28    29   ar
    23    29    30   ar
    24     3     4   ar
    25     4     5   ar
    26     5     6    1
    27     6     7    1
    28     7     8    1
    29     8     9    1
    30     5     1   ar
    31    30    25   ar
    32     9     4    1
    33    10    13    1
    34    22    23    1
@<TRIPOS>MOLECULE
*****
 32 34 0 0 0
SMALL
GASTEIGER

@<TRIPOS>ATOM
      1 C         143.0714  143.0667  159.6472 C.ar    1  UNL1        0.1140
      2 C         143.0033  143.0285  161.1452 C.ar    1  UNL1        0.0275
      3 C         141.9169  143.9653  161.5837 C.ar    1  UNL1        0.0690
      4 C         141.3137  144.5824  160.3568 C.ar    1  UNL1        0.0717
      5 N         142.0272  144.0271  159.1600 N.ar    1  UNL1       -0.3223
      6 C         141.6340  144.4676  157.7812 C.3     1  UNL1        0.1379
      7 C         140.5272  145.4635  157.5992 C.3     1  UNL1        0.1671
      8 O         139.8136  146.0188  158.7960 O.3     1  UNL1       -0.3454
      9 C         140.2069  145.5783  160.1749 C.3     1  UNL1        0.1857
     10 N         144.8456  142.9828  157.7510 N.am    1  UNL1       -0.2903
     11 C         144.0177  142.2823  158.7874 C.2     1  UNL1        0.2621
     12 O         144.1361  140.7975  158.9639 O.2     1  UNL1       -0.2685
     13 H         144.7679  143.9573  157.6351 H       1  UNL1        0.1503
     14 C         145.7918  142.1983  156.8911 C.3     1  UNL1        0.2008
     15 C         147.2128  142.6518  156.7330 C.2     1  UNL1        0.3373
     16 O         147.9742  143.1610  157.9209 O.2     1  UNL1       -0.2482
     17 O         147.8725  142.5960  155.3870 O.3     1  UNL1       -0.4473
     18 C         148.4308  143.8571  153.1852 C.3     1  UNL1        0.0513
     19 C         147.4941  143.5853  154.3247 C.3     1  UNL1        0.2086
     20 C         141.5059  144.2372  163.0005 C.2     1  UNL1        0.2472
     21 O         141.9895  145.4742  163.6975 O.2     1  UNL1       -0.2701
     22 N         140.6113  143.2719  163.7203 N.am    1  UNL1       -0.2987
     23 H         140.2939  142.4600  163.2629 H       1  UNL1        0.1500
     24 C         140.2003  143.5438  165.1370 C.3     1  UNL1        0.0943
     25 C         140.9829  142.9522  166.2717 C.ar    1  UNL1       -0.0045
     26 C         140.3633  142.8426  167.6334 C.ar    1  UNL1       -0.0027
     27 C         141.1459  142.2510  168.7680 C.ar    1  UNL1       -0.0003
     28 C         142.5481  141.7690  168.5410 C.ar    1  UNL1       -0.0000
     29 C         143.1677  141.8786  167.1794 C.ar    1  UNL1       -0.0003
     30 C         142.3851  142.4702  166.0447 C.ar    1  UNL1       -0.0027
     31 C         139.0067  144.4074  165.4190 C.3     1  UNL1        0.0241
     32 C         137.7374  144.2084  164.6448 C.3     1  UNL1        0.0021
@<TRIPOS>BOND
     1    18    19    1
     2    19    17    1
     3    17    15    1
     4    15    16    2
     5    15    14    1
     6    14    10    1
     7    10    11   am
     8    11    12    2
     9    11     1    1
    10     1     2   ar
    11     2     3   ar
    12     3    20    1
    13    20    21    2
    14    20    22   am
    15    22    24    1
    16    24    31    1
    17    31    32    1
    18    24    25    1
    19    25    26   ar
    20    26    27   ar
    21    27    28   ar
    22    28    29   ar
    23    29    30   ar
    24     3     4   ar
    25     4     5   ar
    26     5     6    1
    27     6     7    1
    28     7     8    1
    29     8     9    1
    30     5     1   ar
    31    30    25   ar
    32     9     4    1
    33    10    13    1
    34    22    23    1
@<TRIPOS>MOLECULE
*****
 32 34 0 0 0
SMALL
GASTEIGER

@<TRIPOS>ATOM
      1 C         142.5665  143.2499  160.7818 C.ar    1  UNL1        0.1140
      2 C         142.7623  142.2745  161.9045 C.ar    1  UNL1        0.0275
      3 C         141.8001  142.6288  162.9993 C.ar    1  UNL1        0.0690
      4 C         141.0097  143.8231  162.5533 C.ar    1  UNL1        0.0717
      5 N         141.4834  144.2070  161.1828 N.ar    1  UNL1       -0.3223
      6 C         140.8672  145.3784  160.4771 C.3     1  UNL1        0.1379
      7 C         139.7774  146.1659  161.1418 C.3     1  UNL1        0.1671
      8 O         139.3037  145.7821  162.5123 O.3     1  UNL1       -0.3454
      9 C         139.9198  144.6107  163.2181 C.3     1  UNL1        0.1857
     10 N         144.5179  142.3792  159.3039 N.am    1  UNL1       -0.2903
     11 C         143.3214  143.2655  159.4857 C.2     1  UNL1        0.2621
     12 O         142.8799  144.1672  158.3714 O.2     1  UNL1       -0.2685
     13 H         144.8078  141.7873  160.0353 H       1  UNL1        0.1503
     14 C         145.2728  142.3948  158.0078 C.3     1  UNL1        0.2008
     15 C         145.2771  141.1801  157.1278 C.2     1  UNL1        0.3373
     16 O         146.0135  141.2030  155.8213 O.2     1  UNL1       -0.2482
     17 O         144.5450  139.9423  157.5545 O.3     1  UNL1       -0.4473
     18 C         142.1089  139.7614  158.4394 C.3     1  UNL1        0.0513
     19 C         143.0737  139.8132  157.2920 C.3     1  UNL1        0.2086
     20 C         141.6539  141.9142  164.3100 C.2     1  UNL1        0.2472
     21 O         140.3603  141.2384  164.6557 O.2     1  UNL1       -0.2701
     22 N         142.8016  141.8755  165.2752 N.am    1  UNL1       -0.2987
     23 H         143.6507  142.3191  165.0484 H       1  UNL1        0.1500
     24 C         142.6554  141.1609  166.5860 C.3     1  UNL1        0.0943
     25 C         142.2508  141.9216  167.8138 C.ar    1  UNL1       -0.0045
     26 C         143.2350  142.1273  168.9269 C.ar    1  UNL1       -0.0027
     27 C         142.8304  142.8879  170.1548 C.ar    1  UNL1       -0.0003
     28 C         141.4416  143.4429  170.2696 C.ar    1  UNL1       -0.0000
     29 C         140.4574  143.2372  169.1565 C.ar    1  UNL1       -0.0003
     30 C         140.8620  142.4766  167.9286 C.ar    1  UNL1       -0.0027
     31 C         142.9139  139.6857  166.6688 C.3     1  UNL1        0.0241
     32 C         143.5991  138.9797  165.5365 C.3     1  UNL1        0.0021
@<TRIPOS>BOND
     1    18    19    1
     2    19    17    1
     3    17    15    1
     4    15    16    2
     5    15    14    1
     6    14    10    1
     7    10    11   am
     8    11    12    2
     9    11     1    1
    10     1     2   ar
    11     2     3   ar
    12     3    20    1
    13    20    21    2
    14    20    22   am
    15    22    24    1
    16    24    31    1
    17    31    32    1
    18    24    25    1
    19    25    26   ar
    20    26    27   ar
    21    27    28   ar
    22    28    29   ar
    23    29    30   ar
    24     3     4   ar
    25     4     5   ar
    26     5     6    1
    27     6     7    1
    28     7     8    1
    29     8     9    1
    30     5     1   ar
    31    30    25   ar
    32     9     4    1
    33    10    13    1
    34    22    23    1
