@<TRIPOS>MOLECULE
*****
 35 38 0 0 0
SMALL
GASTEIGER

@<TRIPOS>ATOM
      1 C         141.8167  140.7780  158.4614 C.ar    1  UNL1        0.0020
      2 C         141.9899  140.5010  156.9974 C.ar    1  UNL1       -0.0000
      3 C         142.5066  139.1684  156.5423 C.ar    1  UNL1        0.0031
      4 C         142.8502  138.1129  157.5512 C.ar    1  UNL1        0.0366
      5 C         142.6769  138.3899  159.0151 C.ar    1  UNL1        0.1346
      6 C         142.1602  139.7225  159.4702 C.ar    1  UNL1        0.0137
      7 C         141.9870  139.9995  160.9343 C.3     1  UNL1        0.0528
      8 C         142.3305  138.9440  161.9431 C.3     1  UNL1        0.1200
      9 C         142.8473  137.6113  161.4879 C.3     1  UNL1        0.2250
     10 O         143.0205  137.3343  160.0240 O.3     1  UNL1       -0.4740
     11 C         140.2665  144.7759  159.8269 C.ar    1  UNL1        0.3201
     12 N         139.3123  143.6437  159.5868 N.ar    1  UNL1       -0.1927
     13 C         139.8291  142.3111  159.1316 C.ar    1  UNL1        0.1051
     14 C         141.2999  142.1107  158.9166 C.ar    1  UNL1        0.0384
     15 C         142.2542  143.2429  159.1567 C.ar    1  UNL1        0.1051
     16 N         141.7375  144.5754  159.6118 N.ar    1  UNL1       -0.1927
     17 C         139.5983  146.3936  161.7469 C.3     1  UNL1        0.2559
     18 O         139.7498  146.1085  160.2821 O.3     1  UNL1       -0.4426
     19 N         142.1573  139.2210  163.4071 N.am    1  UNL1       -0.2986
     20 C         143.2179  139.9686  164.1596 C.2     1  UNL1        0.2474
     21 O         144.4517  140.4392  163.4481 O.2     1  UNL1       -0.2701
     22 H         141.3475  138.9121  163.8741 H       1  UNL1        0.1498
     23 C         143.0446  140.2456  165.6236 C.ar    1  UNL1        0.0727
     24 C         143.1737  141.6472  166.1421 C.ar    1  UNL1        0.0109
     25 C         143.0005  141.9242  167.6061 C.ar    1  UNL1        0.0579
     26 C         142.6981  140.7997  168.5515 C.ar    1  UNL1        0.2249
     27 N         142.5690  139.3981  168.0330 N.ar    1  UNL1       -0.2100
     28 C         142.7422  139.1210  166.5690 C.ar    1  UNL1        0.1065
     29 O         142.5248  141.0767  170.0155 O.3     1  UNL1       -0.4599
     30 C         141.1494  141.1249  170.6120 C.3     1  UNL1        0.2159
     31 C         140.0747  141.9387  169.9542 C.3     1  UNL1        0.1505
     32 C         140.0862  143.4338  170.0748 C.3     1  UNL1        0.4014
     33 F         140.0977  144.9289  170.1954 F       1  UNL1       -0.1699
     34 F         139.3285  143.3355  171.3656 F       1  UNL1       -0.1699
     35 F         140.8439  143.5321  168.7840 F       1  UNL1       -0.1699
@<TRIPOS>BOND
     1    17    18    1
     2    18    11    1
     3    11    12   ar
     4    12    13   ar
     5    13    14   ar
     6    14     1    1
     7     1     2   ar
     8     2     3   ar
     9     3     4   ar
    10     4     5   ar
    11     5     6   ar
    12     6     7    1
    13     7     8    1
    14     8    19    1
    15    19    20   am
    16    20    21    2
    17    20    23    1
    18    23    24   ar
    19    24    25   ar
    20    25    26   ar
    21    26    29    1
    22    29    30    1
    23    30    31    1
    24    31    32    1
    25    32    33    1
    26    32    34    1
    27    32    35    1
    28    26    27   ar
    29    27    28   ar
    30     8     9    1
    31     9    10    1
    32    14    15   ar
    33    15    16   ar
    34    16    11   ar
    35     6     1   ar
    36    28    23   ar
    37    10     5    1
    38    19    22    1
@<TRIPOS>MOLECULE
*****
 35 38 0 0 0
SMALL
GASTEIGER

@<TRIPOS>ATOM
      1 C         138.9395  140.3397  164.3723 C.ar    1  UNL1        0.0020
      2 C         138.0196  139.9358  165.4860 C.ar    1  UNL1       -0.0000
      3 C         138.0742  138.5411  166.0354 C.ar    1  UNL1        0.0031
      4 C         139.0488  137.5504  165.4709 C.ar    1  UNL1        0.0366
      5 C         139.9687  137.9543  164.3572 C.ar    1  UNL1        0.1346
      6 C         139.9141  139.3490  163.8078 C.ar    1  UNL1        0.0137
      7 C         140.8341  139.7530  162.6940 C.3     1  UNL1        0.0528
      8 C         141.8086  138.7622  162.1296 C.3     1  UNL1        0.1200
      9 C         141.8633  137.3675  162.6790 C.3     1  UNL1        0.2250
     10 O         140.9433  136.9635  163.7928 O.3     1  UNL1       -0.4740
     11 C         138.7757  144.5239  162.7241 C.ar    1  UNL1        0.3201
     12 N         137.8875  143.4581  162.1542 N.ar    1  UNL1       -0.1927
     13 C         137.9421  142.0633  162.7036 C.ar    1  UNL1        0.1051
     14 C         138.8849  141.7345  163.8229 C.ar    1  UNL1        0.0384
     15 C         139.7732  142.8004  164.3928 C.ar    1  UNL1        0.1051
     16 N         139.7186  144.1951  163.8435 N.ar    1  UNL1       -0.1927
     17 C         139.7460  146.3727  161.1782 C.3     1  UNL1        0.2559
     18 O         138.7211  145.9186  162.1748 O.3     1  UNL1       -0.4426
     19 N         142.7286  139.1661  161.0158 N.am    1  UNL1       -0.2986
     20 C         142.2140  139.2442  159.6090 C.2     1  UNL1        0.2474
     21 O         140.7795  138.9184  159.3160 O.2     1  UNL1       -0.2701
     22 H         143.6701  139.3800  161.2081 H       1  UNL1        0.1498
     23 C         143.1340  139.6482  158.4952 C.ar    1  UNL1        0.0727
     24 C         143.9327  140.9132  158.6037 C.ar    1  UNL1        0.0109
     25 C         144.8527  141.3171  157.4900 C.ar    1  UNL1        0.0579
     26 C         144.9740  140.4561  156.2678 C.ar    1  UNL1        0.2249
     27 N         144.1752  139.1911  156.1593 N.ar    1  UNL1       -0.2100
     28 C         143.2552  138.7871  157.2730 C.ar    1  UNL1        0.1065
     29 O         145.8940  140.8600  155.1540 O.3     1  UNL1       -0.4599
     30 C         147.0308  141.8006  155.4241 C.3     1  UNL1        0.2159
     31 C         148.1127  141.9828  154.4013 C.3     1  UNL1        0.1505
     32 C         149.5442  141.7280  154.7701 C.3     1  UNL1        0.4014
     33 F         150.9756  141.4731  155.1390 F       1  UNL1       -0.1699
     34 F         149.8825  141.5322  153.3219 F       1  UNL1       -0.1699
     35 F         149.2058  141.9237  156.2183 F       1  UNL1       -0.1699
@<TRIPOS>BOND
     1    17    18    1
     2    18    11    1
     3    11    12   ar
     4    12    13   ar
     5    13    14   ar
     6    14     1    1
     7     1     2   ar
     8     2     3   ar
     9     3     4   ar
    10     4     5   ar
    11     5     6   ar
    12     6     7    1
    13     7     8    1
    14     8    19    1
    15    19    20   am
    16    20    21    2
    17    20    23    1
    18    23    24   ar
    19    24    25   ar
    20    25    26   ar
    21    26    29    1
    22    29    30    1
    23    30    31    1
    24    31    32    1
    25    32    33    1
    26    32    34    1
    27    32    35    1
    28    26    27   ar
    29    27    28   ar
    30     8     9    1
    31     9    10    1
    32    14    15   ar
    33    15    16   ar
    34    16    11   ar
    35     6     1   ar
    36    28    23   ar
    37    10     5    1
    38    19    22    1
@<TRIPOS>MOLECULE
*****
 35 38 0 0 0
SMALL
GASTEIGER

@<TRIPOS>ATOM
      1 C         140.9134  142.1390  166.5288 C.ar    1  UNL1        0.0020
      2 C         140.7229  142.4910  167.9744 C.ar    1  UNL1       -0.0000
      3 C         141.2859  141.6019  169.0432 C.ar    1  UNL1        0.0031
      4 C         142.0393  140.3608  168.6665 C.ar    1  UNL1        0.0366
      5 C         142.2298  140.0088  167.2209 C.ar    1  UNL1        0.1346
      6 C         141.6668  140.8979  166.1521 C.ar    1  UNL1        0.0137
      7 C         141.8573  140.5460  164.7064 C.3     1  UNL1        0.0528
      8 C         142.6108  139.3049  164.3296 C.3     1  UNL1        0.1200
      9 C         143.1738  138.4157  165.3986 C.3     1  UNL1        0.2250
     10 O         142.9833  138.7677  166.8442 O.3     1  UNL1       -0.4740
     11 C         139.2243  144.8064  163.3221 C.ar    1  UNL1        0.3201
     12 N         140.6778  144.8945  163.6823 N.ar    1  UNL1       -0.1927
     13 C         141.2408  144.0054  164.7513 C.ar    1  UNL1        0.1051
     14 C         140.3504  143.0282  165.4599 C.ar    1  UNL1        0.0384
     15 C         138.8969  142.9400  165.0996 C.ar    1  UNL1        0.1051
     16 N         138.3339  143.8291  164.0308 N.ar    1  UNL1       -0.1927
     17 C         139.5796  146.3667  161.2754 C.3     1  UNL1        0.2559
     18 O         138.6613  145.6954  162.2532 O.3     1  UNL1       -0.4426
     19 N         142.8013  138.9529  162.8840 N.am    1  UNL1       -0.2986
     20 C         141.6137  138.6194  162.0305 C.2     1  UNL1        0.2474
     21 O         140.2357  138.6379  162.6226 O.2     1  UNL1       -0.2701
     22 H         143.7057  138.9407  162.4954 H       1  UNL1        0.1498
     23 C         141.8043  138.2674  160.5849 C.ar    1  UNL1        0.0727
     24 C         140.8230  138.7525  159.5592 C.ar    1  UNL1        0.0109
     25 C         141.0135  138.4005  158.1136 C.ar    1  UNL1        0.0579
     26 C         142.1852  137.5635  157.6937 C.ar    1  UNL1        0.2249
     27 N         143.1665  137.0784  158.7193 N.ar    1  UNL1       -0.2100
     28 C         142.9760  137.4304  160.1649 C.ar    1  UNL1        0.1065
     29 O         142.3758  137.2115  156.2480 O.3     1  UNL1       -0.4599
     30 C         143.6770  136.6274  155.7835 C.3     1  UNL1        0.2159
     31 C         143.8124  135.1442  155.6059 C.3     1  UNL1        0.1505
     32 C         142.6072  134.2603  155.7340 C.3     1  UNL1        0.4014
     33 F         141.4020  133.3765  155.8621 F       1  UNL1       -0.1699
     34 F         142.3970  134.3318  154.2505 F       1  UNL1       -0.1699
     35 F         142.8173  134.1889  157.2175 F       1  UNL1       -0.1699
@<TRIPOS>BOND
     1    17    18    1
     2    18    11    1
     3    11    12   ar
     4    12    13   ar
     5    13    14   ar
     6    14     1    1
     7     1     2   ar
     8     2     3   ar
     9     3     4   ar
    10     4     5   ar
    11     5     6   ar
    12     6     7    1
    13     7     8    1
    14     8    19    1
    15    19    20   am
    16    20    21    2
    17    20    23    1
    18    23    24   ar
    19    24    25   ar
    20    25    26   ar
    21    26    29    1
    22    29    30    1
    23    30    31    1
    24    31    32    1
    25    32    33    1
    26    32    34    1
    27    32    35    1
    28    26    27   ar
    29    27    28   ar
    30     8     9    1
    31     9    10    1
    32    14    15   ar
    33    15    16   ar
    34    16    11   ar
    35     6     1   ar
    36    28    23   ar
    37    10     5    1
    38    19    22    1
@<TRIPOS>MOLECULE
*****
 35 38 0 0 0
SMALL
GASTEIGER

@<TRIPOS>ATOM
      1 C         142.1130  142.0086  164.8523 C.ar    1  UNL1        0.0020
      2 C         143.2352  142.2691  165.8129 C.ar    1  UNL1       -0.0000
      3 C         144.2501  143.3313  165.5102 C.ar    1  UNL1        0.0031
      4 C         144.1429  144.1330  164.2470 C.ar    1  UNL1        0.0366
      5 C         143.0207  143.8725  163.2864 C.ar    1  UNL1        0.1346
      6 C         142.0057  142.8103  163.5891 C.ar    1  UNL1        0.0137
      7 C         140.8834  142.5498  162.6284 C.3     1  UNL1        0.0528
      8 C         140.7762  143.3515  161.3652 C.3     1  UNL1        0.1200
      9 C         141.7912  144.4138  161.0626 C.3     1  UNL1        0.2250
     10 O         142.9134  144.6742  162.0232 O.3     1  UNL1       -0.4740
     11 C         139.0680  138.8221  165.7602 C.ar    1  UNL1        0.3201
     12 N         140.3440  138.4620  165.0586 N.ar    1  UNL1       -0.1927
     13 C         141.3590  139.5242  164.7560 C.ar    1  UNL1        0.1051
     14 C         141.0980  140.9464  165.1549 C.ar    1  UNL1        0.0384
     15 C         139.8220  141.3065  165.8565 C.ar    1  UNL1        0.1051
     16 N         138.8070  140.2444  166.1591 N.ar    1  UNL1       -0.1927
     17 C         137.1834  137.8785  167.2792 C.3     1  UNL1        0.2559
     18 O         138.0530  137.7600  166.0628 O.3     1  UNL1       -0.4426
     19 N         139.6540  143.0911  160.4046 N.am    1  UNL1       -0.2986
     20 C         139.8736  142.1992  159.2188 C.2     1  UNL1        0.2474
     21 O         141.2153  141.5677  158.9935 O.2     1  UNL1       -0.2701
     22 H         138.7733  143.5055  160.5525 H       1  UNL1        0.1498
     23 C         138.7513  141.9387  158.2582 C.ar    1  UNL1        0.0727
     24 C         138.2463  143.0431  157.3776 C.ar    1  UNL1        0.0109
     25 C         137.1241  142.7827  156.4170 C.ar    1  UNL1        0.0579
     26 C         136.5068  141.4179  156.3370 C.ar    1  UNL1        0.2249
     27 N         137.0117  140.3136  157.2176 N.ar    1  UNL1       -0.2100
     28 C         138.1340  140.5740  158.1782 C.ar    1  UNL1        0.1065
     29 O         135.3845  141.1575  155.3764 O.3     1  UNL1       -0.4599
     30 C         134.3758  140.0879  155.6738 C.3     1  UNL1        0.2159
     31 C         133.0872  140.4409  156.3557 C.3     1  UNL1        0.1505
     32 C         132.1156  139.3607  156.7286 C.3     1  UNL1        0.4014
     33 F         131.1440  138.2805  157.1016 F       1  UNL1       -0.1699
     34 F         131.0082  140.3716  156.7714 F       1  UNL1       -0.1699
     35 F         133.2230  138.3498  156.6858 F       1  UNL1       -0.1699
@<TRIPOS>BOND
     1    17    18    1
     2    18    11    1
     3    11    12   ar
     4    12    13   ar
     5    13    14   ar
     6    14     1    1
     7     1     2   ar
     8     2     3   ar
     9     3     4   ar
    10     4     5   ar
    11     5     6   ar
    12     6     7    1
    13     7     8    1
    14     8    19    1
    15    19    20   am
    16    20    21    2
    17    20    23    1
    18    23    24   ar
    19    24    25   ar
    20    25    26   ar
    21    26    29    1
    22    29    30    1
    23    30    31    1
    24    31    32    1
    25    32    33    1
    26    32    34    1
    27    32    35    1
    28    26    27   ar
    29    27    28   ar
    30     8     9    1
    31     9    10    1
    32    14    15   ar
    33    15    16   ar
    34    16    11   ar
    35     6     1   ar
    36    28    23   ar
    37    10     5    1
    38    19    22    1
@<TRIPOS>MOLECULE
*****
 35 38 0 0 0
SMALL
GASTEIGER

@<TRIPOS>ATOM
      1 C         140.1436  142.4088  164.2725 C.ar    1  UNL1        0.0020
      2 C         139.7684  143.5548  165.1647 C.ar    1  UNL1       -0.0000
      3 C         138.7147  144.5298  164.7301 C.ar    1  UNL1        0.0031
      4 C         138.0361  144.3589  163.4033 C.ar    1  UNL1        0.0366
      5 C         138.4113  143.2130  162.5111 C.ar    1  UNL1        0.1346
      6 C         139.4651  142.2379  162.9457 C.ar    1  UNL1        0.0137
      7 C         139.8403  141.0919  162.0535 C.3     1  UNL1        0.0528
      8 C         139.1618  140.9211  160.7267 C.3     1  UNL1        0.1200
      9 C         138.1080  141.8962  160.2921 C.3     1  UNL1        0.2250
     10 O         137.7328  143.0421  161.1843 O.3     1  UNL1       -0.4740
     11 C         143.3049  139.4836  165.5762 C.ar    1  UNL1        0.3201
     12 N         141.8553  139.1716  165.8024 N.ar    1  UNL1       -0.1927
     13 C         140.8015  140.1467  165.3678 C.ar    1  UNL1        0.1051
     14 C         141.1974  141.4337  164.7071 C.ar    1  UNL1        0.0384
     15 C         142.6470  141.7458  164.4808 C.ar    1  UNL1        0.1051
     16 N         143.7008  140.7708  164.9153 N.ar    1  UNL1       -0.1927
     17 C         144.0495  137.4930  167.0703 C.3     1  UNL1        0.2559
     18 O         144.3587  138.5086  166.0107 O.3     1  UNL1       -0.4426
     19 N         139.5370  139.7751  159.8345 N.am    1  UNL1       -0.2986
     20 C         140.8670  139.7688  159.1411 C.2     1  UNL1        0.2474
     21 O         141.8220  140.9083  159.3399 O.2     1  UNL1       -0.2701
     22 H         138.9102  139.0272  159.7040 H       1  UNL1        0.1498
     23 C         141.2422  138.6227  158.2489 C.ar    1  UNL1        0.0727
     24 C         140.2342  138.0538  157.2948 C.ar    1  UNL1        0.0109
     25 C         140.6093  136.9079  156.4026 C.ar    1  UNL1        0.0579
     26 C         141.9924  136.3309  156.4644 C.ar    1  UNL1        0.2249
     27 N         143.0005  136.8998  157.4185 N.ar    1  UNL1       -0.2100
     28 C         142.6254  138.0457  158.3107 C.ar    1  UNL1        0.1065
     29 O         142.3676  135.1849  155.5722 O.3     1  UNL1       -0.4599
     30 C         142.6674  133.8399  156.1649 C.3     1  UNL1        0.2159
     31 C         144.0298  133.2345  155.9999 C.3     1  UNL1        0.1505
     32 C         144.7499  132.6726  157.1898 C.3     1  UNL1        0.4014
     33 F         145.4700  132.1107  158.3796 F       1  UNL1       -0.1699
     34 F         145.3527  131.6078  156.3221 F       1  UNL1       -0.1699
     35 F         144.1471  133.7374  158.0575 F       1  UNL1       -0.1699
@<TRIPOS>BOND
     1    17    18    1
     2    18    11    1
     3    11    12   ar
     4    12    13   ar
     5    13    14   ar
     6    14     1    1
     7     1     2   ar
     8     2     3   ar
     9     3     4   ar
    10     4     5   ar
    11     5     6   ar
    12     6     7    1
    13     7     8    1
    14     8    19    1
    15    19    20   am
    16    20    21    2
    17    20    23    1
    18    23    24   ar
    19    24    25   ar
    20    25    26   ar
    21    26    29    1
    22    29    30    1
    23    30    31    1
    24    31    32    1
    25    32    33    1
    26    32    34    1
    27    32    35    1
    28    26    27   ar
    29    27    28   ar
    30     8     9    1
    31     9    10    1
    32    14    15   ar
    33    15    16   ar
    34    16    11   ar
    35     6     1   ar
    36    28    23   ar
    37    10     5    1
    38    19    22    1
@<TRIPOS>MOLECULE
*****
 35 38 0 0 0
SMALL
GASTEIGER

@<TRIPOS>ATOM
      1 C         141.8474  142.8598  158.0939 C.ar    1  UNL1        0.0020
      2 C         142.0093  143.6232  156.8130 C.ar    1  UNL1       -0.0000
      3 C         141.7165  145.0938  156.7743 C.ar    1  UNL1        0.0031
      4 C         141.2618  145.8010  158.0165 C.ar    1  UNL1        0.0366
      5 C         141.1000  145.0376  159.2975 C.ar    1  UNL1        0.1346
      6 C         141.3928  143.5670  159.3362 C.ar    1  UNL1        0.0137
      7 C         141.2309  142.8035  160.6172 C.3     1  UNL1        0.0528
      8 C         140.7763  143.5106  161.8595 C.3     1  UNL1        0.1200
      9 C         140.4835  144.9813  161.8207 C.3     1  UNL1        0.2250
     10 O         140.6453  145.7448  160.5397 O.3     1  UNL1       -0.4740
     11 C         142.7257  138.4478  158.2102 C.ar    1  UNL1        0.3201
     12 N         143.8325  139.4386  158.4189 N.ar    1  UNL1       -0.1927
     13 C         143.5397  140.9093  158.3801 C.ar    1  UNL1        0.1051
     14 C         142.1402  141.3891  158.1327 C.ar    1  UNL1        0.0384
     15 C         141.0335  140.3983  157.9240 C.ar    1  UNL1        0.1051
     16 N         141.3262  138.9277  157.9628 N.ar    1  UNL1       -0.1927
     17 C         142.9250  136.1606  156.9942 C.3     1  UNL1        0.2559
     18 O         143.0185  136.9772  158.2490 O.3     1  UNL1       -0.4426
     19 N         140.6144  142.7472  163.1404 N.am    1  UNL1       -0.2986
     20 C         141.6820  142.8119  164.1922 C.2     1  UNL1        0.2474
     21 O         142.9114  143.6401  163.9629 O.2     1  UNL1       -0.2701
     22 H         139.8075  142.2036  163.2909 H       1  UNL1        0.1498
     23 C         141.5201  142.0485  165.4732 C.ar    1  UNL1        0.0727
     24 C         140.1498  141.8029  166.0318 C.ar    1  UNL1        0.0109
     25 C         139.9879  141.0394  167.3128 C.ar    1  UNL1        0.0579
     26 C         141.1962  140.5216  168.0351 C.ar    1  UNL1        0.2249
     27 N         142.5664  140.7672  167.4765 N.ar    1  UNL1       -0.2100
     28 C         142.7284  141.5306  166.1955 C.ar    1  UNL1        0.1065
     29 O         141.0343  139.7581  169.3161 O.3     1  UNL1       -0.4599
     30 C         140.5996  140.4692  170.5632 C.3     1  UNL1        0.2159
     31 C         141.1975  141.7990  170.9154 C.3     1  UNL1        0.1505
     32 C         140.7028  143.0455  170.2433 C.3     1  UNL1        0.4014
     33 F         140.2081  144.2919  169.5712 F       1  UNL1       -0.1699
     34 F         139.2877  142.5841  170.4292 F       1  UNL1       -0.1699
     35 F         142.1179  143.5069  170.0574 F       1  UNL1       -0.1699
@<TRIPOS>BOND
     1    17    18    1
     2    18    11    1
     3    11    12   ar
     4    12    13   ar
     5    13    14   ar
     6    14     1    1
     7     1     2   ar
     8     2     3   ar
     9     3     4   ar
    10     4     5   ar
    11     5     6   ar
    12     6     7    1
    13     7     8    1
    14     8    19    1
    15    19    20   am
    16    20    21    2
    17    20    23    1
    18    23    24   ar
    19    24    25   ar
    20    25    26   ar
    21    26    29    1
    22    29    30    1
    23    30    31    1
    24    31    32    1
    25    32    33    1
    26    32    34    1
    27    32    35    1
    28    26    27   ar
    29    27    28   ar
    30     8     9    1
    31     9    10    1
    32    14    15   ar
    33    15    16   ar
    34    16    11   ar
    35     6     1   ar
    36    28    23   ar
    37    10     5    1
    38    19    22    1
@<TRIPOS>MOLECULE
*****
 35 38 0 0 0
SMALL
GASTEIGER

@<TRIPOS>ATOM
      1 C         142.0040  142.4342  163.3738 C.ar    1  UNL1        0.0020
      2 C         142.4147  143.0196  164.6923 C.ar    1  UNL1       -0.0000
      3 C         142.9734  142.1326  165.7652 C.ar    1  UNL1        0.0031
      4 C         143.1213  140.6603  165.5196 C.ar    1  UNL1        0.0366
      5 C         142.7106  140.0749  164.2011 C.ar    1  UNL1        0.1346
      6 C         142.1520  140.9618  163.1281 C.ar    1  UNL1        0.0137
      7 C         141.7412  140.3765  161.8095 C.3     1  UNL1        0.0528
      8 C         141.8892  138.9041  161.5639 C.3     1  UNL1        0.1200
      9 C         142.4478  138.0172  162.6369 C.3     1  UNL1        0.2250
     10 O         142.8585  138.6025  163.9554 O.3     1  UNL1       -0.4740
     11 C         140.3280  145.0950  160.1548 C.ar    1  UNL1        0.3201
     12 N         141.8099  144.8887  160.2611 N.ar    1  UNL1       -0.1927
     13 C         142.3686  144.0017  161.3342 C.ar    1  UNL1        0.1051
     14 C         141.4454  143.3211  162.3008 C.ar    1  UNL1        0.0384
     15 C         139.9634  143.5275  162.1945 C.ar    1  UNL1        0.1051
     16 N         139.4048  144.4144  161.1215 N.ar    1  UNL1       -0.1927
     17 C         140.2781  145.8692  157.6754 C.3     1  UNL1        0.2559
     18 O         139.7693  145.9819  159.0819 O.3     1  UNL1       -0.4426
     19 N         141.4785  138.3187  160.2453 N.am    1  UNL1       -0.2986
     20 C         142.4242  138.3546  159.0816 C.2     1  UNL1        0.2474
     21 O         143.7806  138.9759  159.2364 O.2     1  UNL1       -0.2701
     22 H         140.5882  137.9110  160.1437 H       1  UNL1        0.1498
     23 C         142.0134  137.7692  157.7630 C.ar    1  UNL1        0.0727
     24 C         140.5639  137.7292  157.3791 C.ar    1  UNL1        0.0109
     25 C         140.1531  137.1438  156.0606 C.ar    1  UNL1        0.0579
     26 C         141.1918  136.5984  155.1260 C.ar    1  UNL1        0.2249
     27 N         142.6413  136.6384  155.5099 N.ar    1  UNL1       -0.2100
     28 C         143.0521  137.2238  156.8284 C.ar    1  UNL1        0.1065
     29 O         140.7811  136.0130  153.8074 O.3     1  UNL1       -0.4599
     30 C         141.4751  134.7923  153.2799 C.3     1  UNL1        0.2159
     31 C         141.3726  133.4922  154.0209 C.3     1  UNL1        0.1505
     32 C         142.5346  132.9960  154.8294 C.3     1  UNL1        0.4014
     33 F         143.6966  132.4998  155.6378 F       1  UNL1       -0.1699
     34 F         141.8931  133.5268  156.0771 F       1  UNL1       -0.1699
     35 F         143.1760  132.4652  153.5816 F       1  UNL1       -0.1699
@<TRIPOS>BOND
     1    17    18    1
     2    18    11    1
     3    11    12   ar
     4    12    13   ar
     5    13    14   ar
     6    14     1    1
     7     1     2   ar
     8     2     3   ar
     9     3     4   ar
    10     4     5   ar
    11     5     6   ar
    12     6     7    1
    13     7     8    1
    14     8    19    1
    15    19    20   am
    16    20    21    2
    17    20    23    1
    18    23    24   ar
    19    24    25   ar
    20    25    26   ar
    21    26    29    1
    22    29    30    1
    23    30    31    1
    24    31    32    1
    25    32    33    1
    26    32    34    1
    27    32    35    1
    28    26    27   ar
    29    27    28   ar
    30     8     9    1
    31     9    10    1
    32    14    15   ar
    33    15    16   ar
    34    16    11   ar
    35     6     1   ar
    36    28    23   ar
    37    10     5    1
    38    19    22    1
@<TRIPOS>MOLECULE
*****
 35 38 0 0 0
SMALL
GASTEIGER

@<TRIPOS>ATOM
      1 C         140.1643  142.4871  165.2802 C.ar    1  UNL1        0.0020
      2 C         140.2653  142.9686  166.6972 C.ar    1  UNL1       -0.0000
      3 C         140.4450  141.9827  167.8132 C.ar    1  UNL1        0.0031
      4 C         140.5237  140.5153  167.5123 C.ar    1  UNL1        0.0366
      5 C         140.4227  140.0338  166.0953 C.ar    1  UNL1        0.1346
      6 C         140.2430  141.0197  164.9792 C.ar    1  UNL1        0.0137
      7 C         140.1420  140.5383  163.5622 C.3     1  UNL1        0.0528
      8 C         140.2207  139.0709  163.2612 C.3     1  UNL1        0.1200
      9 C         140.4004  138.0850  164.3774 C.3     1  UNL1        0.2250
     10 O         140.5014  138.5664  165.7944 O.3     1  UNL1       -0.4740
     11 C         139.6252  145.4449  161.9318 C.ar    1  UNL1        0.3201
     12 N         141.0045  145.0724  162.3886 N.ar    1  UNL1       -0.1927
     13 C         141.1842  144.0864  163.5048 C.ar    1  UNL1        0.1051
     14 C         139.9846  143.4731  164.1640 C.ar    1  UNL1        0.0384
     15 C         138.6053  143.8456  163.7072 C.ar    1  UNL1        0.1051
     16 N         138.4255  144.8314  162.5911 N.ar    1  UNL1       -0.1927
     17 C         140.0642  146.1668  159.4750 C.3     1  UNL1        0.2559
     18 O         139.4454  146.4307  160.8157 O.3     1  UNL1       -0.4426
     19 N         140.1197  138.5894  161.8442 N.am    1  UNL1       -0.2986
     20 C         141.2209  138.8877  160.8704 C.2     1  UNL1        0.2474
     21 O         142.4232  139.6675  161.3136 O.2     1  UNL1       -0.2701
     22 H         139.3306  138.0776  161.5533 H       1  UNL1        0.1498
     23 C         141.1199  138.4062  159.4534 C.ar    1  UNL1        0.0727
     24 C         142.3545  137.9777  158.7170 C.ar    1  UNL1        0.0109
     25 C         142.2535  137.4962  157.3001 C.ar    1  UNL1        0.0579
     26 C         140.9179  137.4432  156.6194 C.ar    1  UNL1        0.2249
     27 N         139.6833  137.8716  157.3557 N.ar    1  UNL1       -0.2100
     28 C         139.7843  138.3532  158.7727 C.ar    1  UNL1        0.1065
     29 O         140.8169  136.9616  155.2023 O.3     1  UNL1       -0.4599
     30 C         141.6812  135.8298  154.7314 C.3     1  UNL1        0.2159
     31 C         141.6107  134.4971  155.4162 C.3     1  UNL1        0.1505
     32 C         142.8728  133.7639  155.7623 C.3     1  UNL1        0.4014
     33 F         144.1348  133.0308  156.1084 F       1  UNL1       -0.1699
     34 F         143.6830  134.8835  155.1791 F       1  UNL1       -0.1699
     35 F         142.0625  132.6444  156.3454 F       1  UNL1       -0.1699
@<TRIPOS>BOND
     1    17    18    1
     2    18    11    1
     3    11    12   ar
     4    12    13   ar
     5    13    14   ar
     6    14     1    1
     7     1     2   ar
     8     2     3   ar
     9     3     4   ar
    10     4     5   ar
    11     5     6   ar
    12     6     7    1
    13     7     8    1
    14     8    19    1
    15    19    20   am
    16    20    21    2
    17    20    23    1
    18    23    24   ar
    19    24    25   ar
    20    25    26   ar
    21    26    29    1
    22    29    30    1
    23    30    31    1
    24    31    32    1
    25    32    33    1
    26    32    34    1
    27    32    35    1
    28    26    27   ar
    29    27    28   ar
    30     8     9    1
    31     9    10    1
    32    14    15   ar
    33    15    16   ar
    34    16    11   ar
    35     6     1   ar
    36    28    23   ar
    37    10     5    1
    38    19    22    1
@<TRIPOS>MOLECULE
*****
 35 38 0 0 0
SMALL
GASTEIGER

@<TRIPOS>ATOM
      1 C         140.9356  143.5309  161.1437 C.ar    1  UNL1        0.0020
      2 C         140.6324  144.6131  160.1503 C.ar    1  UNL1       -0.0000
      3 C         139.9554  145.8743  160.5986 C.ar    1  UNL1        0.0031
      4 C         139.5817  146.0534  162.0402 C.ar    1  UNL1        0.0366
      5 C         139.8849  144.9712  163.0336 C.ar    1  UNL1        0.1346
      6 C         140.5619  143.7100  162.5853 C.ar    1  UNL1        0.0137
      7 C         140.8653  142.6277  163.5788 C.3     1  UNL1        0.0528
      8 C         140.4916  142.8068  165.0204 C.3     1  UNL1        0.1200
      9 C         139.8145  144.0681  165.4686 C.3     1  UNL1        0.2250
     10 O         139.5112  145.1502  164.4752 O.3     1  UNL1       -0.4740
     11 C         142.9668  139.7471  159.7991 C.ar    1  UNL1        0.3201
     12 N         141.4729  139.8625  159.7279 N.ar    1  UNL1       -0.1927
     13 C         140.7959  141.1238  160.1761 C.ar    1  UNL1        0.1051
     14 C         141.6127  142.2696  160.6955 C.ar    1  UNL1        0.0384
     15 C         143.1065  142.1543  160.7667 C.ar    1  UNL1        0.1051
     16 N         143.7836  140.8930  160.3185 N.ar    1  UNL1       -0.1927
     17 C         142.9744  137.1601  159.5608 C.3     1  UNL1        0.2559
     18 O         143.6438  138.4859  159.3509 O.3     1  UNL1       -0.4426
     19 N         140.7949  141.7246  166.0138 N.am    1  UNL1       -0.2986
     20 C         142.1198  141.7015  166.7166 C.2     1  UNL1        0.2474
     21 O         143.1415  142.7606  166.4261 O.2     1  UNL1       -0.2701
     22 H         140.1243  141.0294  166.2045 H       1  UNL1        0.1498
     23 C         142.4231  140.6193  167.7100 C.ar    1  UNL1        0.0727
     24 C         142.8982  139.2778  167.2360 C.ar    1  UNL1        0.0109
     25 C         143.2015  138.1956  168.2294 C.ar    1  UNL1        0.0579
     26 C         143.0296  138.4548  169.6967 C.ar    1  UNL1        0.2249
     27 N         142.5545  139.7963  170.1707 N.ar    1  UNL1       -0.2100
     28 C         142.2512  140.8785  169.1774 C.ar    1  UNL1        0.1065
     29 O         143.3329  137.3726  170.6902 O.3     1  UNL1       -0.4599
     30 C         144.5233  136.4823  170.4894 C.3     1  UNL1        0.2159
     31 C         144.8038  135.3746  171.4610 C.3     1  UNL1        0.1505
     32 C         145.9762  135.4721  172.3916 C.3     1  UNL1        0.4014
     33 F         147.1486  135.5697  173.3222 F       1  UNL1       -0.1699
     34 F         145.7050  134.0798  172.8792 F       1  UNL1       -0.1699
     35 F         146.2474  136.8645  171.9040 F       1  UNL1       -0.1699
@<TRIPOS>BOND
     1    17    18    1
     2    18    11    1
     3    11    12   ar
     4    12    13   ar
     5    13    14   ar
     6    14     1    1
     7     1     2   ar
     8     2     3   ar
     9     3     4   ar
    10     4     5   ar
    11     5     6   ar
    12     6     7    1
    13     7     8    1
    14     8    19    1
    15    19    20   am
    16    20    21    2
    17    20    23    1
    18    23    24   ar
    19    24    25   ar
    20    25    26   ar
    21    26    29    1
    22    29    30    1
    23    30    31    1
    24    31    32    1
    25    32    33    1
    26    32    34    1
    27    32    35    1
    28    26    27   ar
    29    27    28   ar
    30     8     9    1
    31     9    10    1
    32    14    15   ar
    33    15    16   ar
    34    16    11   ar
    35     6     1   ar
    36    28    23   ar
    37    10     5    1
    38    19    22    1
