@<TRIPOS>MOLECULE
*****
 28 31 0 0 0
SMALL
GASTEIGER

@<TRIPOS>ATOM
      1 C         139.3426  139.5090  166.5943 C.ar    1  UNL1        0.0206
      2 C         138.5622  138.2902  166.2000 C.ar    1  UNL1        0.0013
      3 C         138.5757  137.8192  164.7759 C.ar    1  UNL1       -0.0045
      4 C         139.3696  138.5672  163.7461 C.ar    1  UNL1       -0.0247
      5 C         140.1499  139.7859  164.1405 C.ar    1  UNL1       -0.0246
      6 C         140.1365  140.2569  165.5645 C.ar    1  UNL1       -0.0029
      7 C         141.0010  140.6708  163.2786 C.3     1  UNL1        0.0433
      8 C         141.2818  140.5555  161.8096 C.3     1  UNL1        0.0768
      9 N         140.7809  139.5268  160.8398 N.3     1  UNL1       -0.2720
     10 C         139.8756  138.3593  161.0991 C.3     1  UNL1        0.0768
     11 C         139.2474  137.9322  162.3926 C.3     1  UNL1        0.0433
     12 C         140.5801  142.0461  171.0566 C.3     1  UNL1        0.0754
     13 C         139.8979  141.1461  170.0695 C.ar    1  UNL1        0.1548
     14 C         140.2753  140.9712  168.6283 C.ar    1  UNL1        0.0580
     15 C         139.3291  139.9799  168.0184 C.ar    1  UNL1        0.1227
     16 N         138.3669  139.5421  169.0827 N.ar    1  UNL1       -0.0774
     17 O         138.7185  140.2628  170.3503 O.2     1  UNL1       -0.3578
     18 C         141.2471  139.6866  159.4230 C.3     1  UNL1        0.0730
     19 C         140.6658  140.7667  158.5595 C.3     1  UNL1        0.0294
     20 C         139.2217  141.1460  158.7030 C.3     1  UNL1        0.0666
     21 S         138.8419  142.3720  159.4792 S.3     1  UNL1       -0.0756
     22 C         138.3207  142.2415  160.8797 C.ar    1  UNL1        0.1930
     23 N         137.4428  141.1396  161.3947 N.ar    1  UNL1       -0.1224
     24 N         137.1655  141.4070  162.8443 N.ar    1  UNL1       -0.1328
     25 C         137.8720  142.6742  163.2254 C.ar    1  UNL1        0.1441
     26 C         137.8656  143.3133  164.5823 C.3     1  UNL1        0.0739
     27 N         138.5860  143.1899  162.0111 N.ar    1  UNL1       -0.2918
     28 C         139.4189  144.4354  161.9408 C.3     1  UNL1        0.1337
@<TRIPOS>BOND
     1    12    13    1
     2    13    14   ar
     3    14    15   ar
     4    15     1    1
     5     1     2   ar
     6     2     3   ar
     7     3     4   ar
     8     4     5   ar
     9     5     6   ar
    10     5     7    1
    11     7     8    1
    12     8     9    1
    13     9    18    1
    14    18    19    1
    15    19    20    1
    16    20    21    1
    17    21    22    1
    18    22    23   ar
    19    23    24   ar
    20    24    25   ar
    21    25    26    1
    22    25    27   ar
    23    27    28    1
    24     9    10    1
    25    10    11    1
    26    15    16   ar
    27    16    17   ar
    28    17    13   ar
    29     6     1   ar
    30    27    22   ar
    31    11     4    1
@<TRIPOS>MOLECULE
*****
 28 31 0 0 0
SMALL
GASTEIGER

@<TRIPOS>ATOM
      1 C         139.8934  140.2415  166.2660 C.ar    1  UNL1        0.0206
      2 C         138.4940  139.9290  165.8254 C.ar    1  UNL1        0.0013
      3 C         138.0893  140.1527  164.3984 C.ar    1  UNL1       -0.0045
      4 C         139.0841  140.6890  163.4120 C.ar    1  UNL1       -0.0247
      5 C         140.4834  141.0015  163.8526 C.ar    1  UNL1       -0.0246
      6 C         140.8881  140.7778  165.2795 C.ar    1  UNL1       -0.0029
      7 C         141.6223  141.5395  163.0379 C.3     1  UNL1        0.0433
      8 C         141.6429  141.8977  161.5814 C.3     1  UNL1        0.0768
      9 N         140.5300  141.8064  160.5800 N.3     1  UNL1       -0.2720
     10 C         139.1214  141.3344  160.7876 C.3     1  UNL1        0.0768
     11 C         138.4779  140.8371  162.0480 C.3     1  UNL1        0.0433
     12 C         142.8171  139.6396  170.6214 C.3     1  UNL1        0.0754
     13 C         141.6419  139.7411  169.6950 C.ar    1  UNL1        0.1548
     14 C         141.7030  139.9957  168.2179 C.ar    1  UNL1        0.0580
     15 C         140.2980  140.0178  167.6929 C.ar    1  UNL1        0.1227
     16 N         139.3687  139.7769  168.8454 N.ar    1  UNL1       -0.0774
     17 O         140.1992  139.6059  170.0827 O.2     1  UNL1       -0.3578
     18 C         140.8706  142.2452  159.1866 C.3     1  UNL1        0.0730
     19 C         141.1257  143.6950  158.8980 C.3     1  UNL1        0.0294
     20 C         140.1717  144.7386  159.3988 C.3     1  UNL1        0.0666
     21 S         140.4354  145.4321  160.7024 S.3     1  UNL1       -0.0756
     22 C         139.7249  144.9866  161.9461 C.ar    1  UNL1        0.1930
     23 N         138.2922  144.5517  162.0352 N.ar    1  UNL1       -0.1224
     24 N         138.0042  144.1941  163.4632 N.ar    1  UNL1       -0.1328
     25 C         139.2590  144.4081  164.2567 C.ar    1  UNL1        0.1441
     26 C         139.4218  144.1734  165.7292 C.3     1  UNL1        0.0739
     27 N         140.3225  144.8979  163.3190 N.ar    1  UNL1       -0.2918
     28 C         141.7355  145.2390  163.6894 C.3     1  UNL1        0.1337
@<TRIPOS>BOND
     1    12    13    1
     2    13    14   ar
     3    14    15   ar
     4    15     1    1
     5     1     2   ar
     6     2     3   ar
     7     3     4   ar
     8     4     5   ar
     9     5     6   ar
    10     5     7    1
    11     7     8    1
    12     8     9    1
    13     9    18    1
    14    18    19    1
    15    19    20    1
    16    20    21    1
    17    21    22    1
    18    22    23   ar
    19    23    24   ar
    20    24    25   ar
    21    25    26    1
    22    25    27   ar
    23    27    28    1
    24     9    10    1
    25    10    11    1
    26    15    16   ar
    27    16    17   ar
    28    17    13   ar
    29     6     1   ar
    30    27    22   ar
    31    11     4    1
@<TRIPOS>MOLECULE
*****
 28 31 0 0 0
SMALL
GASTEIGER

@<TRIPOS>ATOM
      1 C         139.0704  139.6696  166.4923 C.ar    1  UNL1        0.0206
      2 C         138.8767  138.2905  165.9350 C.ar    1  UNL1        0.0013
      3 C         138.6899  138.0972  164.4592 C.ar    1  UNL1       -0.0045
      4 C         138.6967  139.2832  163.5408 C.ar    1  UNL1       -0.0247
      5 C         138.8905  140.6622  164.0981 C.ar    1  UNL1       -0.0246
      6 C         139.0773  140.8555  165.5737 C.ar    1  UNL1       -0.0029
      7 C         138.9300  141.9703  163.3648 C.3     1  UNL1        0.0433
      8 C         138.7856  142.2221  161.8931 C.3     1  UNL1        0.0768
      9 N         138.5660  141.2283  160.7914 N.3     1  UNL1       -0.2720
     10 C         138.4365  139.7371  160.8890 C.3     1  UNL1        0.0768
     11 C         138.4947  138.8714  162.1126 C.3     1  UNL1        0.0433
     12 C         141.1807  140.9364  171.1637 C.3     1  UNL1        0.0754
     13 C         140.2273  140.4450  170.1152 C.ar    1  UNL1        0.1548
     14 C         140.4715  140.4376  168.6352 C.ar    1  UNL1        0.0580
     15 C         139.2573  139.8627  167.9680 C.ar    1  UNL1        0.1227
     16 N         138.2626  139.5149  169.0356 N.ar    1  UNL1       -0.0774
     17 O         138.8621  139.8748  170.3626 O.2     1  UNL1       -0.3578
     18 C         138.4621  141.8014  159.4091 C.3     1  UNL1        0.0730
     19 C         139.6804  142.3592  158.7348 C.3     1  UNL1        0.0294
     20 C         139.6446  143.7359  158.1403 C.3     1  UNL1        0.0666
     21 S         140.5385  144.8109  158.6836 S.3     1  UNL1       -0.0756
     22 C         140.4933  145.1577  160.1423 C.ar    1  UNL1        0.1930
     23 N         139.5255  146.0997  160.7950 N.ar    1  UNL1       -0.1224
     24 N         139.8420  146.1476  162.2604 N.ar    1  UNL1       -0.1328
     25 C         141.0054  145.2352  162.5134 C.ar    1  UNL1        0.1441
     26 C         141.6527  144.9795  163.8422 C.3     1  UNL1        0.0739
     27 N         141.4080  144.6234  161.2043 N.ar    1  UNL1       -0.2918
     28 C         142.5284  143.6485  160.9942 C.3     1  UNL1        0.1337
@<TRIPOS>BOND
     1    12    13    1
     2    13    14   ar
     3    14    15   ar
     4    15     1    1
     5     1     2   ar
     6     2     3   ar
     7     3     4   ar
     8     4     5   ar
     9     5     6   ar
    10     5     7    1
    11     7     8    1
    12     8     9    1
    13     9    18    1
    14    18    19    1
    15    19    20    1
    16    20    21    1
    17    21    22    1
    18    22    23   ar
    19    23    24   ar
    20    24    25   ar
    21    25    26    1
    22    25    27   ar
    23    27    28    1
    24     9    10    1
    25    10    11    1
    26    15    16   ar
    27    16    17   ar
    28    17    13   ar
    29     6     1   ar
    30    27    22   ar
    31    11     4    1
@<TRIPOS>MOLECULE
*****
 28 31 0 0 0
SMALL
GASTEIGER

@<TRIPOS>ATOM
      1 C         139.5003  140.1574  167.2049 C.ar    1  UNL1        0.0206
      2 C         138.4326  139.1588  166.8688 C.ar    1  UNL1        0.0013
      3 C         138.0845  138.8869  165.4353 C.ar    1  UNL1       -0.0045
      4 C         138.8040  139.6136  164.3379 C.ar    1  UNL1       -0.0247
      5 C         139.8715  140.6122  164.6740 C.ar    1  UNL1       -0.0246
      6 C         140.2197  140.8841  166.1075 C.ar    1  UNL1       -0.0029
      7 C         140.7048  141.4402  163.7412 C.3     1  UNL1        0.0433
      8 C         140.6762  141.4740  162.2417 C.3     1  UNL1        0.0768
      9 N         139.8074  140.6882  161.3051 N.3     1  UNL1       -0.2720
     10 C         138.7525  139.6745  161.6362 C.3     1  UNL1        0.0768
     11 C         138.3059  139.1963  162.9859 C.3     1  UNL1        0.0433
     12 C         141.9193  141.9946  171.5238 C.3     1  UNL1        0.0754
     13 C         140.9603  141.2737  170.6236 C.ar    1  UNL1        0.1548
     14 C         140.9854  141.2786  169.1238 C.ar    1  UNL1        0.0580
     15 C         139.8484  140.4292  168.6384 C.ar    1  UNL1        0.1227
     16 N         139.1205  139.8994  169.8382 N.ar    1  UNL1       -0.0774
     17 O         139.8077  140.4213  171.0650 O.2     1  UNL1       -0.3578
     18 C         140.0217  140.9508  159.8438 C.3     1  UNL1        0.0730
     19 C         141.1486  140.2773  159.1181 C.3     1  UNL1        0.0294
     20 C         141.3680  138.8020  159.2775 C.3     1  UNL1        0.0666
     21 S         142.4840  138.2990  160.1443 S.3     1  UNL1       -0.0756
     22 C         142.2524  138.0728  161.6090 C.ar    1  UNL1        0.1930
     23 N         141.1936  137.1959  162.2091 N.ar    1  UNL1       -0.1224
     24 N         141.3258  137.2648  163.7016 N.ar    1  UNL1       -0.1328
     25 C         142.4663  138.1843  164.0240 C.ar    1  UNL1        0.1441
     26 C         142.9493  138.5417  165.3984 C.3     1  UNL1        0.0739
     27 N         143.0390  138.6836  162.7306 N.ar    1  UNL1       -0.2918
     28 C         144.1952  139.6280  162.5847 C.3     1  UNL1        0.1337
@<TRIPOS>BOND
     1    12    13    1
     2    13    14   ar
     3    14    15   ar
     4    15     1    1
     5     1     2   ar
     6     2     3   ar
     7     3     4   ar
     8     4     5   ar
     9     5     6   ar
    10     5     7    1
    11     7     8    1
    12     8     9    1
    13     9    18    1
    14    18    19    1
    15    19    20    1
    16    20    21    1
    17    21    22    1
    18    22    23   ar
    19    23    24   ar
    20    24    25   ar
    21    25    26    1
    22    25    27   ar
    23    27    28    1
    24     9    10    1
    25    10    11    1
    26    15    16   ar
    27    16    17   ar
    28    17    13   ar
    29     6     1   ar
    30    27    22   ar
    31    11     4    1
@<TRIPOS>MOLECULE
*****
 28 31 0 0 0
SMALL
GASTEIGER

@<TRIPOS>ATOM
      1 C         139.7362  139.5789  166.9545 C.ar    1  UNL1        0.0206
      2 C         138.4523  139.2314  166.2609 C.ar    1  UNL1        0.0013
      3 C         138.4723  138.7661  164.8350 C.ar    1  UNL1       -0.0045
      4 C         139.7761  138.6484  164.1027 C.ar    1  UNL1       -0.0247
      5 C         141.0599  138.9959  164.7963 C.ar    1  UNL1       -0.0246
      6 C         141.0400  139.4612  166.2221 C.ar    1  UNL1       -0.0029
      7 C         142.4579  138.9494  164.2545 C.3     1  UNL1        0.0433
      8 C         142.9173  138.5439  162.8853 C.3     1  UNL1        0.0768
      9 N         142.0922  138.0847  161.7199 N.3     1  UNL1       -0.2720
     10 C         140.6039  137.9177  161.6356 C.3     1  UNL1        0.0768
     11 C         139.5732  138.1685  162.6961 C.3     1  UNL1        0.0433
     12 C         141.0722  141.9338  171.4877 C.3     1  UNL1        0.0754
     13 C         140.3302  141.1266  170.4641 C.ar    1  UNL1        0.1548
     14 C         140.7480  140.9106  169.0396 C.ar    1  UNL1        0.0580
     15 C         139.7162  140.0442  168.3803 C.ar    1  UNL1        0.1227
     16 N         138.6608  139.7247  169.3973 N.ar    1  UNL1       -0.0774
     17 O         139.0403  140.3937  170.6850 O.2     1  UNL1       -0.3578
     18 C         142.8565  137.7481  160.4739 C.3     1  UNL1        0.0730
     19 C         143.4118  138.8455  159.6151 C.3     1  UNL1        0.0294
     20 C         142.8768  140.2411  159.7422 C.3     1  UNL1        0.0666
     21 S         143.8229  141.4012  159.8363 S.3     1  UNL1       -0.0756
     22 C         144.1675  141.9812  161.1761 C.ar    1  UNL1        0.1930
     23 N         145.2534  141.5000  162.0921 N.ar    1  UNL1       -0.1224
     24 N         145.2439  142.3655  163.3172 N.ar    1  UNL1       -0.1328
     25 C         144.1520  143.3817  163.1582 C.ar    1  UNL1        0.1441
     26 C         143.7891  144.4481  164.1486 C.3     1  UNL1        0.0739
     27 N         143.4868  143.1442  161.8349 N.ar    1  UNL1       -0.2918
     28 C         142.3418  143.9314  161.2698 C.3     1  UNL1        0.1337
@<TRIPOS>BOND
     1    12    13    1
     2    13    14   ar
     3    14    15   ar
     4    15     1    1
     5     1     2   ar
     6     2     3   ar
     7     3     4   ar
     8     4     5   ar
     9     5     6   ar
    10     5     7    1
    11     7     8    1
    12     8     9    1
    13     9    18    1
    14    18    19    1
    15    19    20    1
    16    20    21    1
    17    21    22    1
    18    22    23   ar
    19    23    24   ar
    20    24    25   ar
    21    25    26    1
    22    25    27   ar
    23    27    28    1
    24     9    10    1
    25    10    11    1
    26    15    16   ar
    27    16    17   ar
    28    17    13   ar
    29     6     1   ar
    30    27    22   ar
    31    11     4    1
@<TRIPOS>MOLECULE
*****
 28 31 0 0 0
SMALL
GASTEIGER

@<TRIPOS>ATOM
      1 C         141.1321  142.2010  166.3227 C.ar    1  UNL1        0.0206
      2 C         139.9417  143.1029  166.4634 C.ar    1  UNL1        0.0013
      3 C         139.0768  143.3946  165.2730 C.ar    1  UNL1       -0.0045
      4 C         139.4023  142.7843  163.9419 C.ar    1  UNL1       -0.0247
      5 C         140.5926  141.8826  163.8013 C.ar    1  UNL1       -0.0246
      6 C         141.4575  141.5908  164.9915 C.ar    1  UNL1       -0.0029
      7 C         141.0913  141.1764  162.5753 C.3     1  UNL1        0.0433
      8 C         140.5228  141.1979  161.1873 C.3     1  UNL1        0.0768
      9 N         139.3153  141.9306  160.6826 N.3     1  UNL1       -0.2720
     10 C         138.3779  142.8230  161.4410 C.3     1  UNL1        0.0768
     11 C         138.4167  143.2029  162.8915 C.3     1  UNL1        0.0433
     12 C         143.0573  139.9749  170.7065 C.3     1  UNL1        0.0754
     13 C         142.8819  140.8862  169.5281 C.ar    1  UNL1        0.1548
     14 C         141.7837  140.8084  168.5092 C.ar    1  UNL1        0.0580
     15 C         141.9969  141.9094  167.5130 C.ar    1  UNL1        0.1227
     16 N         143.2268  142.6676  167.9162 N.ar    1  UNL1       -0.0774
     17 O         143.7737  142.0352  169.1615 O.2     1  UNL1       -0.3578
     18 C         139.0038  141.7467  159.2268 C.3     1  UNL1        0.0730
     19 C         138.8449  142.9437  158.3368 C.3     1  UNL1        0.0294
     20 C         140.0455  143.7554  157.9499 C.3     1  UNL1        0.0666
     21 S         140.4308  144.9575  158.7601 S.3     1  UNL1       -0.0756
     22 C         141.2494  144.7913  160.0060 C.ar    1  UNL1        0.1930
     23 N         142.5234  144.0086  160.1260 N.ar    1  UNL1       -0.1224
     24 N         142.9991  144.1121  161.5448 N.ar    1  UNL1       -0.1328
     25 C         142.0191  144.9587  162.3017 C.ar    1  UNL1        0.1441
     26 C         142.1053  145.3218  163.7545 C.3     1  UNL1        0.0739
     27 N         140.9377  145.3785  161.3506 N.ar    1  UNL1       -0.2918
     28 C         139.7527  146.2350  161.6855 C.3     1  UNL1        0.1337
@<TRIPOS>BOND
     1    12    13    1
     2    13    14   ar
     3    14    15   ar
     4    15     1    1
     5     1     2   ar
     6     2     3   ar
     7     3     4   ar
     8     4     5   ar
     9     5     6   ar
    10     5     7    1
    11     7     8    1
    12     8     9    1
    13     9    18    1
    14    18    19    1
    15    19    20    1
    16    20    21    1
    17    21    22    1
    18    22    23   ar
    19    23    24   ar
    20    24    25   ar
    21    25    26    1
    22    25    27   ar
    23    27    28    1
    24     9    10    1
    25    10    11    1
    26    15    16   ar
    27    16    17   ar
    28    17    13   ar
    29     6     1   ar
    30    27    22   ar
    31    11     4    1
@<TRIPOS>MOLECULE
*****
 28 31 0 0 0
SMALL
GASTEIGER

@<TRIPOS>ATOM
      1 C         140.2886  143.1225  166.6604 C.ar    1  UNL1        0.0206
      2 C         139.3558  144.1972  166.1862 C.ar    1  UNL1        0.0013
      3 C         139.1623  144.4278  164.7167 C.ar    1  UNL1       -0.0045
      4 C         139.9017  143.5835  163.7213 C.ar    1  UNL1       -0.0247
      5 C         140.8345  142.5089  164.1955 C.ar    1  UNL1       -0.0246
      6 C         141.0280  142.2783  165.6650 C.ar    1  UNL1       -0.0029
      7 C         141.6625  141.5618  163.3785 C.3     1  UNL1        0.0433
      8 C         141.7622  141.4556  161.8855 C.3     1  UNL1        0.0768
      9 N         141.0585  142.2701  160.8410 N.3     1  UNL1       -0.2720
     10 C         140.0813  143.3921  161.0312 C.3     1  UNL1        0.0768
     11 C         139.5664  143.9766  162.3131 C.3     1  UNL1        0.0433
     12 C         141.5156  140.8577  171.2696 C.3     1  UNL1        0.0754
     13 C         141.0461  141.8510  170.2486 C.ar    1  UNL1        0.1548
     14 C         141.0267  141.6459  168.7627 C.ar    1  UNL1        0.0580
     15 C         140.4821  142.8920  168.1298 C.ar    1  UNL1        0.1227
     16 N         140.1649  143.8673  169.2245 N.ar    1  UNL1       -0.0774
     17 O         140.5134  143.2239  170.5339 O.2     1  UNL1       -0.3578
     18 C         141.3736  141.9158  159.4179 C.3     1  UNL1        0.0730
     19 C         140.6919  140.7489  158.7668 C.3     1  UNL1        0.0294
     20 C         139.2256  140.5199  158.9844 C.3     1  UNL1        0.0666
     21 S         138.7658  139.5200  160.0035 S.3     1  UNL1       -0.0756
     22 C         138.3398  139.9798  161.3663 C.ar    1  UNL1        0.1930
     23 N         137.4036  141.1140  161.6615 N.ar    1  UNL1       -0.1224
     24 N         137.2605  141.2213  163.1508 N.ar    1  UNL1       -0.1328
     25 C         138.1082  140.1534  163.7760 C.ar    1  UNL1        0.1441
     26 C         138.2620  139.8977  165.2460 C.3     1  UNL1        0.0739
     27 N         138.7753  139.3861  162.6732 N.ar    1  UNL1       -0.2918
     28 C         139.7132  138.2284  162.8467 C.3     1  UNL1        0.1337
@<TRIPOS>BOND
     1    12    13    1
     2    13    14   ar
     3    14    15   ar
     4    15     1    1
     5     1     2   ar
     6     2     3   ar
     7     3     4   ar
     8     4     5   ar
     9     5     6   ar
    10     5     7    1
    11     7     8    1
    12     8     9    1
    13     9    18    1
    14    18    19    1
    15    19    20    1
    16    20    21    1
    17    21    22    1
    18    22    23   ar
    19    23    24   ar
    20    24    25   ar
    21    25    26    1
    22    25    27   ar
    23    27    28    1
    24     9    10    1
    25    10    11    1
    26    15    16   ar
    27    16    17   ar
    28    17    13   ar
    29     6     1   ar
    30    27    22   ar
    31    11     4    1
@<TRIPOS>MOLECULE
*****
 28 31 0 0 0
SMALL
GASTEIGER

@<TRIPOS>ATOM
      1 C         140.7948  142.8785  166.0934 C.ar    1  UNL1        0.0206
      2 C         139.6069  143.7903  166.1797 C.ar    1  UNL1        0.0013
      3 C         139.2085  144.6174  164.9933 C.ar    1  UNL1       -0.0045
      4 C         139.9981  144.5325  163.7207 C.ar    1  UNL1       -0.0247
      5 C         141.1859  143.6208  163.6346 C.ar    1  UNL1       -0.0246
      6 C         141.5844  142.7937  164.8208 C.ar    1  UNL1       -0.0029
      7 C         142.1033  143.3873  162.4708 C.3     1  UNL1        0.0433
      8 C         142.0591  144.0080  161.1059 C.3     1  UNL1        0.0768
      9 N         141.0868  145.0153  160.5678 N.3     1  UNL1       -0.2720
     10 C         139.9185  145.6510  161.2614 C.3     1  UNL1        0.0768
     11 C         139.4340  145.4361  162.6646 C.3     1  UNL1        0.0433
     12 C         140.6257  140.2687  170.6804 C.3     1  UNL1        0.0754
     13 C         141.1154  140.8519  169.3882 C.ar    1  UNL1        0.1548
     14 C         140.3096  141.6836  168.4347 C.ar    1  UNL1        0.0580
     15 C         141.1931  142.0515  167.2797 C.ar    1  UNL1        0.1227
     16 N         142.5450  141.4473  167.5194 N.ar    1  UNL1       -0.0774
     17 O         142.4969  140.7060  168.8224 O.2     1  UNL1       -0.3578
     18 C         141.3127  145.4439  159.1481 C.3     1  UNL1        0.0730
     19 C         140.4820  144.8561  158.0460 C.3     1  UNL1        0.0294
     20 C         140.3646  143.3671  157.9078 C.3     1  UNL1        0.0666
     21 S         139.0800  142.6798  158.2647 S.3     1  UNL1       -0.0756
     22 C         138.7816  142.3439  159.6958 C.ar    1  UNL1        0.1930
     23 N         137.7048  142.9591  160.5397 N.ar    1  UNL1       -0.1224
     24 N         137.7652  142.3293  161.8998 N.ar    1  UNL1       -0.1328
     25 C         138.8793  141.3250  161.8964 C.ar    1  UNL1        0.1441
     26 C         139.2928  140.4630  163.0523 C.3     1  UNL1        0.0739
     27 N         139.5075  141.3340  160.5343 N.ar    1  UNL1       -0.2918
     28 C         140.6594  140.4826  160.0889 C.3     1  UNL1        0.1337
@<TRIPOS>BOND
     1    12    13    1
     2    13    14   ar
     3    14    15   ar
     4    15     1    1
     5     1     2   ar
     6     2     3   ar
     7     3     4   ar
     8     4     5   ar
     9     5     6   ar
    10     5     7    1
    11     7     8    1
    12     8     9    1
    13     9    18    1
    14    18    19    1
    15    19    20    1
    16    20    21    1
    17    21    22    1
    18    22    23   ar
    19    23    24   ar
    20    24    25   ar
    21    25    26    1
    22    25    27   ar
    23    27    28    1
    24     9    10    1
    25    10    11    1
    26    15    16   ar
    27    16    17   ar
    28    17    13   ar
    29     6     1   ar
    30    27    22   ar
    31    11     4    1
@<TRIPOS>MOLECULE
*****
 28 31 0 0 0
SMALL
GASTEIGER

@<TRIPOS>ATOM
      1 C         142.0897  139.6918  166.1771 C.ar    1  UNL1        0.0206
      2 C         142.6135  138.4591  165.5018 C.ar    1  UNL1        0.0013
      3 C         142.3767  138.2491  164.0355 C.ar    1  UNL1       -0.0045
      4 C         141.6160  139.2718  163.2447 C.ar    1  UNL1       -0.0247
      5 C         141.0922  140.5044  163.9200 C.ar    1  UNL1       -0.0246
      6 C         141.3290  140.7145  165.3862 C.ar    1  UNL1       -0.0029
      7 C         140.3152  141.6399  163.3223 C.3     1  UNL1        0.0433
      8 C         139.8703  141.8230  161.9014 C.3     1  UNL1        0.0768
      9 N         140.0924  140.9160  160.7277 N.3     1  UNL1       -0.2720
     10 C         140.8143  139.6018  160.6846 C.3     1  UNL1        0.0768
     11 C         141.4923  138.8700  161.8048 C.3     1  UNL1        0.0433
     12 C         142.1269  141.8380  171.0013 C.3     1  UNL1        0.0754
     13 C         142.3437  140.8883  169.8608 C.ar    1  UNL1        0.1548
     14 C         141.9036  141.0987  168.4423 C.ar    1  UNL1        0.0580
     15 C         142.3266  139.9018  167.6433 C.ar    1  UNL1        0.1227
     16 N         143.0280  138.9515  168.5680 N.ar    1  UNL1       -0.0774
     17 O         143.0386  139.5612  169.9384 O.2     1  UNL1       -0.3578
     18 C         139.5165  141.3851  159.4245 C.3     1  UNL1        0.0730
     19 C         138.9970  142.7864  159.2952 C.3     1  UNL1        0.0294
     20 C         139.6659  143.7512  158.3614 C.3     1  UNL1        0.0666
     21 S         140.4301  144.9190  158.9107 S.3     1  UNL1       -0.0756
     22 C         141.2895  144.7474  160.1281 C.ar    1  UNL1        0.1930
     23 N         142.6184  144.0533  160.1785 N.ar    1  UNL1       -0.1224
     24 N         143.1211  144.1166  161.5903 N.ar    1  UNL1       -0.1328
     25 C         142.1029  144.8497  162.4125 C.ar    1  UNL1        0.1441
     26 C         142.1997  145.1417  163.8806 C.3     1  UNL1        0.0739
     27 N         140.9709  145.2395  161.5087 N.ar    1  UNL1       -0.2918
     28 C         139.7371  145.9898  161.9145 C.3     1  UNL1        0.1337
@<TRIPOS>BOND
     1    12    13    1
     2    13    14   ar
     3    14    15   ar
     4    15     1    1
     5     1     2   ar
     6     2     3   ar
     7     3     4   ar
     8     4     5   ar
     9     5     6   ar
    10     5     7    1
    11     7     8    1
    12     8     9    1
    13     9    18    1
    14    18    19    1
    15    19    20    1
    16    20    21    1
    17    21    22    1
    18    22    23   ar
    19    23    24   ar
    20    24    25   ar
    21    25    26    1
    22    25    27   ar
    23    27    28    1
    24     9    10    1
    25    10    11    1
    26    15    16   ar
    27    16    17   ar
    28    17    13   ar
    29     6     1   ar
    30    27    22   ar
    31    11     4    1
