@<TRIPOS>MOLECULE
*****
 29 32 0 0 0
SMALL
GASTEIGER

@<TRIPOS>ATOM
      1 C         138.6125  139.7888  169.1051 C.ar    1  UNL1        0.1375
      2 C         139.4538  140.5623  170.0766 C.ar    1  UNL1        0.0558
      3 C         140.7147  141.2290  169.6119 C.ar    1  UNL1        0.0887
      4 N         141.5560  142.0026  170.5833 N.ar    1  UNL1       -0.2238
      5 C         142.8168  142.6692  170.1186 C.ar    1  UNL1        0.2000
      6 N         143.2363  142.5621  168.6824 N.ar    1  UNL1       -0.2089
      7 C         142.3950  141.7885  167.7110 C.ar    1  UNL1        0.1353
      8 C         141.1342  141.1220  168.1757 C.ar    1  UNL1        0.0493
      9 C         140.2928  140.3483  167.2043 C.ar    1  UNL1        0.0044
     10 C         139.0320  139.6817  167.6690 C.ar    1  UNL1        0.0280
     11 C         136.9633  139.1783  171.0176 C.3     1  UNL1        0.2525
     12 O         137.3516  139.1221  169.5699 O.3     1  UNL1       -0.4717
     13 N         142.8145  141.6815  166.2748 N.pl3   1  UNL1       -0.2961
     14 H         143.1539  140.8267  165.9236 H       1  UNL1        0.1537
     15 C         142.7168  142.8768  165.3739 C.ar    1  UNL1        0.0780
     16 C         143.9611  143.5967  164.9454 C.ar    1  UNL1        0.0170
     17 C         143.8635  144.7920  164.0445 C.ar    1  UNL1        0.0023
     18 C         142.5216  145.2674  163.5720 C.ar    1  UNL1        0.0138
     19 C         141.2773  144.5476  164.0004 C.ar    1  UNL1        0.0863
     20 CL        139.9354  145.0230  163.5279 Cl      1  UNL1       -0.0799
     21 C         141.3749  143.3522  164.9014 C.ar    1  UNL1        0.1639
     22 F         140.1307  142.6324  165.3299 F       1  UNL1       -0.2020
     23 C         138.1907  138.9081  166.6975 C.3     1  UNL1        0.1023
     24 N         138.5597  138.8778  165.2440 N.3     1  UNL1       -0.2646
     25 C         139.3468  137.7253  164.6939 C.3     1  UNL1        0.1049
     26 C         139.7159  137.6950  163.2403 C.3     1  UNL1        0.1595
     27 O         139.2979  138.8171  162.3368 O.3     1  UNL1       -0.3508
     28 C         138.5109  139.9695  162.8869 C.3     1  UNL1        0.1595
     29 C         138.1418  139.9998  164.3405 C.3     1  UNL1        0.1049
@<TRIPOS>BOND
     1    11    12    1
     2    12     1    1
     3     1     2   ar
     4     2     3   ar
     5     3     4   ar
     6     4     5   ar
     7     5     6   ar
     8     6     7   ar
     9     7    13    1
    10    13    15    1
    11    15    16   ar
    12    16    17   ar
    13    17    18   ar
    14    18    19   ar
    15    19    20    1
    16    19    21   ar
    17    21    22    1
    18     7     8   ar
    19     8     9   ar
    20     9    10   ar
    21    10    23    1
    22    23    24    1
    23    24    25    1
    24    25    26    1
    25    26    27    1
    26    27    28    1
    27    28    29    1
    28    10     1   ar
    29    29    24    1
    30     8     3   ar
    31    21    15   ar
    32    13    14    1
@<TRIPOS>MOLECULE
*****
 29 32 0 0 0
SMALL
GASTEIGER

@<TRIPOS>ATOM
      1 C         143.5707  139.1685  165.7716 C.ar    1  UNL1        0.1375
      2 C         144.3581  139.3426  164.5069 C.ar    1  UNL1        0.0558
      3 C         144.3806  140.6730  163.8144 C.ar    1  UNL1        0.0887
      4 N         145.1680  140.8470  162.5497 N.ar    1  UNL1       -0.2238
      5 C         145.1905  142.1774  161.8573 C.ar    1  UNL1        0.2000
      6 N         144.4256  143.3338  162.4296 N.ar    1  UNL1       -0.2089
      7 C         143.6381  143.1598  163.6944 C.ar    1  UNL1        0.1353
      8 C         143.6157  141.8294  164.3868 C.ar    1  UNL1        0.0493
      9 C         142.8282  141.6554  165.6516 C.ar    1  UNL1        0.0044
     10 C         142.8057  140.3249  166.3440 C.ar    1  UNL1        0.0280
     11 C         144.8134  137.2668  167.0322 C.3     1  UNL1        0.2525
     12 O         143.5482  137.8381  166.4641 O.3     1  UNL1       -0.4717
     13 N         142.8732  144.3162  164.2667 N.pl3   1  UNL1       -0.2961
     14 H         143.2692  144.8614  164.9845 H       1  UNL1        0.1537
     15 C         141.5049  144.6420  163.7455 C.ar    1  UNL1        0.0780
     16 C         141.3495  145.3010  162.4069 C.ar    1  UNL1        0.0170
     17 C         139.9813  145.6267  161.8857 C.ar    1  UNL1        0.0023
     18 C         138.7684  145.2935  162.7029 C.ar    1  UNL1        0.0138
     19 C         138.9238  144.6346  164.0414 C.ar    1  UNL1        0.0863
     20 CL        137.7109  144.3014  164.8586 Cl      1  UNL1       -0.0799
     21 C         140.2921  144.3088  164.5627 C.ar    1  UNL1        0.1639
     22 F         140.4474  143.6498  165.9012 F       1  UNL1       -0.2020
     23 C         142.0183  140.1509  167.6088 C.3     1  UNL1        0.1023
     24 N         141.8747  141.2964  168.5665 N.3     1  UNL1       -0.2646
     25 C         140.5486  141.9792  168.7258 C.3     1  UNL1        0.1049
     26 C         140.4051  143.1247  169.6835 C.3     1  UNL1        0.1595
     27 O         141.5877  143.5873  170.4820 O.3     1  UNL1       -0.3508
     28 C         142.9137  142.9045  170.3227 C.3     1  UNL1        0.1595
     29 C         143.0572  141.7590  169.3650 C.3     1  UNL1        0.1049
@<TRIPOS>BOND
     1    11    12    1
     2    12     1    1
     3     1     2   ar
     4     2     3   ar
     5     3     4   ar
     6     4     5   ar
     7     5     6   ar
     8     6     7   ar
     9     7    13    1
    10    13    15    1
    11    15    16   ar
    12    16    17   ar
    13    17    18   ar
    14    18    19   ar
    15    19    20    1
    16    19    21   ar
    17    21    22    1
    18     7     8   ar
    19     8     9   ar
    20     9    10   ar
    21    10    23    1
    22    23    24    1
    23    24    25    1
    24    25    26    1
    25    26    27    1
    26    27    28    1
    27    28    29    1
    28    10     1   ar
    29    29    24    1
    30     8     3   ar
    31    21    15   ar
    32    13    14    1
@<TRIPOS>MOLECULE
*****
 29 32 0 0 0
SMALL
GASTEIGER

@<TRIPOS>ATOM
      1 C         143.0262  143.0385  164.7812 C.ar    1  UNL1        0.1375
      2 C         142.3701  144.1086  163.9601 C.ar    1  UNL1        0.0558
      3 C         140.8862  144.0827  163.7419 C.ar    1  UNL1        0.0887
      4 N         140.2301  145.1529  162.9208 N.ar    1  UNL1       -0.2238
      5 C         138.7463  145.1269  162.7027 C.ar    1  UNL1        0.2000
      6 N         137.9187  144.0308  163.3056 N.ar    1  UNL1       -0.2089
      7 C         138.5748  142.9606  164.1266 C.ar    1  UNL1        0.1353
      8 C         140.0586  142.9866  164.3448 C.ar    1  UNL1        0.0493
      9 C         140.7148  141.9164  165.1659 C.ar    1  UNL1        0.0044
     10 C         142.1986  141.9424  165.3841 C.ar    1  UNL1        0.0280
     11 C         145.4179  142.3139  164.0707 C.3     1  UNL1        0.2525
     12 O         144.5101  143.0644  164.9994 O.3     1  UNL1       -0.4717
     13 N         137.7471  141.8645  164.7295 N.pl3   1  UNL1       -0.2961
     14 H         136.9712  142.0868  165.2932 H       1  UNL1        0.1537
     15 C         138.1017  140.4297  164.4736 C.ar    1  UNL1        0.0780
     16 C         138.3211  139.4943  165.6256 C.ar    1  UNL1        0.0170
     17 C         138.6756  138.0595  165.3697 C.ar    1  UNL1        0.0023
     18 C         138.8108  137.5600  163.9618 C.ar    1  UNL1        0.0138
     19 C         138.5914  138.4952  162.8098 C.ar    1  UNL1        0.0863
     20 CL        138.7265  137.9957  161.4019 Cl      1  UNL1       -0.0799
     21 C         138.2368  139.9301  163.0657 C.ar    1  UNL1        0.1639
     22 F         138.0174  140.8654  161.9137 F       1  UNL1       -0.2020
     23 C         142.8548  140.8722  166.2052 C.3     1  UNL1        0.1023
     24 N         142.7472  140.9027  167.7010 N.3     1  UNL1       -0.2646
     25 C         142.9430  142.1928  168.4409 C.3     1  UNL1        0.1049
     26 C         142.8354  142.2233  169.9367 C.3     1  UNL1        0.1595
     27 O         142.5320  140.9636  170.6927 O.3     1  UNL1       -0.3508
     28 C         142.3362  139.6736  169.9528 C.3     1  UNL1        0.1595
     29 C         142.4438  139.6431  168.4570 C.3     1  UNL1        0.1049
@<TRIPOS>BOND
     1    11    12    1
     2    12     1    1
     3     1     2   ar
     4     2     3   ar
     5     3     4   ar
     6     4     5   ar
     7     5     6   ar
     8     6     7   ar
     9     7    13    1
    10    13    15    1
    11    15    16   ar
    12    16    17   ar
    13    17    18   ar
    14    18    19   ar
    15    19    20    1
    16    19    21   ar
    17    21    22    1
    18     7     8   ar
    19     8     9   ar
    20     9    10   ar
    21    10    23    1
    22    23    24    1
    23    24    25    1
    24    25    26    1
    25    26    27    1
    26    27    28    1
    27    28    29    1
    28    10     1   ar
    29    29    24    1
    30     8     3   ar
    31    21    15   ar
    32    13    14    1
@<TRIPOS>MOLECULE
*****
 29 32 0 0 0
SMALL
GASTEIGER

@<TRIPOS>ATOM
      1 C         138.7200  138.8445  165.9946 C.ar    1  UNL1        0.1375
      2 C         138.8730  138.0762  164.7155 C.ar    1  UNL1        0.0558
      3 C         140.1583  138.1498  163.9455 C.ar    1  UNL1        0.0887
      4 N         140.3113  137.3816  162.6664 N.ar    1  UNL1       -0.2238
      5 C         141.5965  137.4552  161.8965 C.ar    1  UNL1        0.2000
      6 N         142.7287  138.2971  162.4057 N.ar    1  UNL1       -0.2089
      7 C         142.5757  139.0654  163.6849 C.ar    1  UNL1        0.1353
      8 C         141.2905  138.9917  164.4548 C.ar    1  UNL1        0.0493
      9 C         141.1374  139.7600  165.7340 C.ar    1  UNL1        0.0044
     10 C         139.8522  139.6864  166.5039 C.ar    1  UNL1        0.0280
     11 C         137.0384  137.4926  167.4419 C.3     1  UNL1        0.2525
     12 O         137.4347  138.7709  166.7646 O.3     1  UNL1       -0.4717
     13 N         143.7079  139.9073  164.1942 N.pl3   1  UNL1       -0.2961
     14 H         144.2703  139.5808  164.9334 H       1  UNL1        0.1537
     15 C         143.9832  141.2465  163.5772 C.ar    1  UNL1        0.0780
     16 C         144.4856  141.3333  162.1665 C.ar    1  UNL1        0.0170
     17 C         144.7610  142.6725  161.5495 C.ar    1  UNL1        0.0023
     18 C         144.5339  143.9249  162.3432 C.ar    1  UNL1        0.0138
     19 C         144.0314  143.8381  163.7539 C.ar    1  UNL1        0.0863
     20 CL        143.8044  145.0905  164.5476 Cl      1  UNL1       -0.0799
     21 C         143.7561  142.4988  164.3709 C.ar    1  UNL1        0.1639
     22 F         143.2537  142.4120  165.7816 F       1  UNL1       -0.2020
     23 C         139.6991  140.4547  167.7831 C.3     1  UNL1        0.1023
     24 N         140.9102  140.8126  168.5925 N.3     1  UNL1       -0.2646
     25 C         141.4605  142.2072  168.5425 C.3     1  UNL1        0.1049
     26 C         142.6716  142.5651  169.3519 C.3     1  UNL1        0.1595
     27 O         143.3324  141.5284  170.2114 O.3     1  UNL1       -0.3508
     28 C         142.7822  140.1339  170.2614 C.3     1  UNL1        0.1595
     29 C         141.5711  139.7760  169.4520 C.3     1  UNL1        0.1049
@<TRIPOS>BOND
     1    11    12    1
     2    12     1    1
     3     1     2   ar
     4     2     3   ar
     5     3     4   ar
     6     4     5   ar
     7     5     6   ar
     8     6     7   ar
     9     7    13    1
    10    13    15    1
    11    15    16   ar
    12    16    17   ar
    13    17    18   ar
    14    18    19   ar
    15    19    20    1
    16    19    21   ar
    17    21    22    1
    18     7     8   ar
    19     8     9   ar
    20     9    10   ar
    21    10    23    1
    22    23    24    1
    23    24    25    1
    24    25    26    1
    25    26    27    1
    26    27    28    1
    27    28    29    1
    28    10     1   ar
    29    29    24    1
    30     8     3   ar
    31    21    15   ar
    32    13    14    1
@<TRIPOS>MOLECULE
*****
 29 32 0 0 0
SMALL
GASTEIGER

@<TRIPOS>ATOM
      1 C         141.8607  138.7685  165.4520 C.ar    1  UNL1        0.1375
      2 C         141.3469  137.9245  164.3235 C.ar    1  UNL1        0.0558
      3 C         140.1155  138.3417  163.5752 C.ar    1  UNL1        0.0887
      4 N         139.6017  137.4976  162.4467 N.ar    1  UNL1       -0.2238
      5 C         138.3704  137.9149  161.6985 C.ar    1  UNL1        0.2000
      6 N         137.6530  139.1761  162.0788 N.ar    1  UNL1       -0.2089
      7 C         138.1669  140.0201  163.2073 C.ar    1  UNL1        0.1353
      8 C         139.3981  139.6029  163.9555 C.ar    1  UNL1        0.0493
      9 C         139.9121  140.4469  165.0841 C.ar    1  UNL1        0.0044
     10 C         141.1433  140.0297  165.8323 C.ar    1  UNL1        0.0280
     11 C         144.4495  138.6853  165.6563 C.3     1  UNL1        0.2525
     12 O         143.0921  138.3513  166.2003 O.3     1  UNL1       -0.4717
     13 N         137.4495  141.2813  163.5876 N.pl3   1  UNL1       -0.2961
     14 H         136.5315  141.2381  163.9409 H       1  UNL1        0.1537
     15 C         138.1306  142.6084  163.4297 C.ar    1  UNL1        0.0780
     16 C         138.2192  143.5493  164.5945 C.ar    1  UNL1        0.0170
     17 C         138.9003  144.8764  164.4366 C.ar    1  UNL1        0.0023
     18 C         139.4928  145.2625  163.1138 C.ar    1  UNL1        0.0138
     19 C         139.4043  144.3217  161.9490 C.ar    1  UNL1        0.0863
     20 CL        139.9969  144.7079  160.6262 Cl      1  UNL1       -0.0799
     21 C         138.7232  142.9946  162.1069 C.ar    1  UNL1        0.1639
     22 F         138.6346  142.0537  160.9421 F       1  UNL1       -0.2020
     23 C         141.6573  140.8737  166.9608 C.3     1  UNL1        0.1023
     24 N         140.7913  141.1334  168.1578 N.3     1  UNL1       -0.2646
     25 C         140.8894  142.4419  168.8847 C.3     1  UNL1        0.1049
     26 C         140.0234  142.7016  170.0817 C.3     1  UNL1        0.1595
     27 O         139.0594  141.6529  170.5517 O.3     1  UNL1       -0.3508
     28 C         138.9613  140.3445  169.8247 C.3     1  UNL1        0.1595
     29 C         139.8273  140.0848  168.6278 C.3     1  UNL1        0.1049
@<TRIPOS>BOND
     1    11    12    1
     2    12     1    1
     3     1     2   ar
     4     2     3   ar
     5     3     4   ar
     6     4     5   ar
     7     5     6   ar
     8     6     7   ar
     9     7    13    1
    10    13    15    1
    11    15    16   ar
    12    16    17   ar
    13    17    18   ar
    14    18    19   ar
    15    19    20    1
    16    19    21   ar
    17    21    22    1
    18     7     8   ar
    19     8     9   ar
    20     9    10   ar
    21    10    23    1
    22    23    24    1
    23    24    25    1
    24    25    26    1
    25    26    27    1
    26    27    28    1
    27    28    29    1
    28    10     1   ar
    29    29    24    1
    30     8     3   ar
    31    21    15   ar
    32    13    14    1
@<TRIPOS>MOLECULE
*****
 29 32 0 0 0
SMALL
GASTEIGER

@<TRIPOS>ATOM
      1 C         140.3820  144.6336  162.3116 C.ar    1  UNL1        0.1375
      2 C         141.7565  144.9997  162.7877 C.ar    1  UNL1        0.0558
      3 C         142.4285  144.1748  163.8450 C.ar    1  UNL1        0.0887
      4 N         143.8030  144.5409  164.3211 N.ar    1  UNL1       -0.2238
      5 C         144.4750  143.7160  165.3784 C.ar    1  UNL1        0.2000
      6 N         143.7724  142.5250  165.9597 N.ar    1  UNL1       -0.2089
      7 C         142.3979  142.1589  165.4837 C.ar    1  UNL1        0.1353
      8 C         141.7260  142.9838  164.4264 C.ar    1  UNL1        0.0493
      9 C         140.3514  142.6177  163.9503 C.ar    1  UNL1        0.0044
     10 C         139.6794  143.4426  162.8930 C.ar    1  UNL1        0.0280
     11 C         140.3045  145.5450  159.8799 C.3     1  UNL1        0.2525
     12 O         139.7100  145.4585  161.2543 O.3     1  UNL1       -0.4717
     13 N         141.6953  140.9679  166.0650 N.pl3   1  UNL1       -0.2961
     14 H         141.3592  140.2571  165.4726 H       1  UNL1        0.1537
     15 C         141.5049  140.8599  167.5489 C.ar    1  UNL1        0.0780
     16 C         142.1011  139.7061  168.2996 C.ar    1  UNL1        0.0170
     17 C         141.9107  139.5981  169.7835 C.ar    1  UNL1        0.0023
     18 C         141.1242  140.6439  170.5168 C.ar    1  UNL1        0.0138
     19 C         140.5280  141.7976  169.7662 C.ar    1  UNL1        0.0863
     20 CL        139.7415  142.8434  170.4996 Cl      1  UNL1       -0.0799
     21 C         140.7184  141.9057  168.2822 C.ar    1  UNL1        0.1639
     22 F         140.1223  143.0594  167.5316 F       1  UNL1       -0.2020
     23 C         138.3048  143.0765  162.4169 C.3     1  UNL1        0.1023
     24 N         138.1319  142.0233  161.3629 N.3     1  UNL1       -0.2646
     25 C         137.6394  140.6578  161.7409 C.3     1  UNL1        0.1049
     26 C         137.4665  139.6046  160.6869 C.3     1  UNL1        0.1595
     27 O         137.7861  139.9169  159.2550 O.3     1  UNL1       -0.3508
     28 C         138.2786  141.2824  158.8771 C.3     1  UNL1        0.1595
     29 C         138.4515  142.3356  159.9311 C.3     1  UNL1        0.1049
@<TRIPOS>BOND
     1    11    12    1
     2    12     1    1
     3     1     2   ar
     4     2     3   ar
     5     3     4   ar
     6     4     5   ar
     7     5     6   ar
     8     6     7   ar
     9     7    13    1
    10    13    15    1
    11    15    16   ar
    12    16    17   ar
    13    17    18   ar
    14    18    19   ar
    15    19    20    1
    16    19    21   ar
    17    21    22    1
    18     7     8   ar
    19     8     9   ar
    20     9    10   ar
    21    10    23    1
    22    23    24    1
    23    24    25    1
    24    25    26    1
    25    26    27    1
    26    27    28    1
    27    28    29    1
    28    10     1   ar
    29    29    24    1
    30     8     3   ar
    31    21    15   ar
    32    13    14    1
@<TRIPOS>MOLECULE
*****
 29 32 0 0 0
SMALL
GASTEIGER

@<TRIPOS>ATOM
      1 C         138.8745  140.1883  165.5898 C.ar    1  UNL1        0.1375
      2 C         138.0395  141.0790  164.7184 C.ar    1  UNL1        0.0558
      3 C         138.6093  142.3640  164.1948 C.ar    1  UNL1        0.0887
      4 N         137.7742  143.2547  163.3233 N.ar    1  UNL1       -0.2238
      5 C         138.3440  144.5396  162.7998 C.ar    1  UNL1        0.2000
      6 N         139.7489  144.9339  163.1476 N.ar    1  UNL1       -0.2089
      7 C         140.5839  144.0433  164.0191 C.ar    1  UNL1        0.1353
      8 C         140.0141  142.7583  164.5426 C.ar    1  UNL1        0.0493
      9 C         140.8491  141.8676  165.4141 C.ar    1  UNL1        0.0044
     10 C         140.2793  140.5826  165.9376 C.ar    1  UNL1        0.0280
     11 C         138.5613  137.6173  165.3851 C.3     1  UNL1        0.2525
     12 O         138.3047  138.9032  166.1134 O.3     1  UNL1       -0.4717
     13 N         141.9887  144.4376  164.3669 N.pl3   1  UNL1       -0.2961
     14 H         142.1525  145.2212  164.9399 H       1  UNL1        0.1537
     15 C         143.1440  143.6379  163.8418 C.ar    1  UNL1        0.0780
     16 C         144.0856  142.9648  164.7960 C.ar    1  UNL1        0.0170
     17 C         145.2409  142.1652  164.2709 C.ar    1  UNL1        0.0023
     18 C         145.4546  142.0385  162.7916 C.ar    1  UNL1        0.0138
     19 C         144.5131  142.7115  161.8374 C.ar    1  UNL1        0.0863
     20 CL        144.7268  142.5848  160.3581 Cl      1  UNL1       -0.0799
     21 C         143.3577  143.5112  162.3625 C.ar    1  UNL1        0.1639
     22 F         142.4161  144.1842  161.4083 F       1  UNL1       -0.2020
     23 C         141.1144  139.6918  166.8091 C.3     1  UNL1        0.1023
     24 N         141.3128  140.0311  168.2567 N.3     1  UNL1       -0.2646
     25 C         140.1294  140.1275  169.1735 C.3     1  UNL1        0.1049
     26 C         140.3278  140.4667  170.6211 C.3     1  UNL1        0.1595
     27 O         141.7096  140.7097  171.1519 O.3     1  UNL1       -0.3508
     28 C         142.8929  140.6134  170.2351 C.3     1  UNL1        0.1595
     29 C         142.6945  140.2741  168.7875 C.3     1  UNL1        0.1049
@<TRIPOS>BOND
     1    11    12    1
     2    12     1    1
     3     1     2   ar
     4     2     3   ar
     5     3     4   ar
     6     4     5   ar
     7     5     6   ar
     8     6     7   ar
     9     7    13    1
    10    13    15    1
    11    15    16   ar
    12    16    17   ar
    13    17    18   ar
    14    18    19   ar
    15    19    20    1
    16    19    21   ar
    17    21    22    1
    18     7     8   ar
    19     8     9   ar
    20     9    10   ar
    21    10    23    1
    22    23    24    1
    23    24    25    1
    24    25    26    1
    25    26    27    1
    26    27    28    1
    27    28    29    1
    28    10     1   ar
    29    29    24    1
    30     8     3   ar
    31    21    15   ar
    32    13    14    1
@<TRIPOS>MOLECULE
*****
 29 32 0 0 0
SMALL
GASTEIGER

@<TRIPOS>ATOM
      1 C         140.6764  144.6600  162.1102 C.ar    1  UNL1        0.1375
      2 C         142.0585  144.9521  162.6144 C.ar    1  UNL1        0.0558
      3 C         142.5985  144.2053  163.7980 C.ar    1  UNL1        0.0887
      4 N         143.9807  144.4974  164.3022 N.ar    1  UNL1       -0.2238
      5 C         144.5206  143.7507  165.4858 C.ar    1  UNL1        0.2000
      6 N         143.6784  142.7119  166.1651 N.ar    1  UNL1       -0.2089
      7 C         142.2962  142.4198  165.6609 C.ar    1  UNL1        0.1353
      8 C         141.7563  143.1665  164.4773 C.ar    1  UNL1        0.0493
      9 C         140.3741  142.8744  163.9730 C.ar    1  UNL1        0.0044
     10 C         139.8342  143.6212  162.7895 C.ar    1  UNL1        0.0280
     11 C         140.8152  145.2919  159.5939 C.3     1  UNL1        0.2525
     12 O         140.1364  145.4068  160.9266 O.3     1  UNL1       -0.4717
     13 N         141.4540  141.3809  166.3402 N.pl3   1  UNL1       -0.2961
     14 H         141.0075  141.5895  167.1925 H       1  UNL1        0.1537
     15 C         141.2921  140.0244  165.7210 C.ar    1  UNL1        0.0780
     16 C         142.4369  139.3947  164.9841 C.ar    1  UNL1        0.0170
     17 C         142.2750  138.0382  164.3648 C.ar    1  UNL1        0.0023
     18 C         140.9682  137.3112  164.4825 C.ar    1  UNL1        0.0138
     19 C         139.8234  137.9407  165.2193 C.ar    1  UNL1        0.0863
     20 CL        138.5166  137.2137  165.3369 Cl      1  UNL1       -0.0799
     21 C         139.9853  139.2974  165.8386 C.ar    1  UNL1        0.1639
     22 F         138.8405  139.9269  166.5754 F       1  UNL1       -0.2020
     23 C         138.4519  143.3291  162.2852 C.3     1  UNL1        0.1023
     24 N         138.2281  142.2026  161.3204 N.3     1  UNL1       -0.2646
     25 C         138.5235  142.3941  159.8622 C.3     1  UNL1        0.1049
     26 C         138.2996  141.2676  158.8974 C.3     1  UNL1        0.1595
     27 O         137.7804  139.9496  159.3907 O.3     1  UNL1       -0.3508
     28 C         137.4850  139.7581  160.8488 C.3     1  UNL1        0.1595
     29 C         137.7089  140.8846  161.8137 C.3     1  UNL1        0.1049
@<TRIPOS>BOND
     1    11    12    1
     2    12     1    1
     3     1     2   ar
     4     2     3   ar
     5     3     4   ar
     6     4     5   ar
     7     5     6   ar
     8     6     7   ar
     9     7    13    1
    10    13    15    1
    11    15    16   ar
    12    16    17   ar
    13    17    18   ar
    14    18    19   ar
    15    19    20    1
    16    19    21   ar
    17    21    22    1
    18     7     8   ar
    19     8     9   ar
    20     9    10   ar
    21    10    23    1
    22    23    24    1
    23    24    25    1
    24    25    26    1
    25    26    27    1
    26    27    28    1
    27    28    29    1
    28    10     1   ar
    29    29    24    1
    30     8     3   ar
    31    21    15   ar
    32    13    14    1
@<TRIPOS>MOLECULE
*****
 29 32 0 0 0
SMALL
GASTEIGER

@<TRIPOS>ATOM
      1 C         138.7380  139.1417  166.6278 C.ar    1  UNL1        0.1375
      2 C         139.1079  139.9981  167.8025 C.ar    1  UNL1        0.0558
      3 C         140.4413  140.6841  167.8403 C.ar    1  UNL1        0.0887
      4 N         140.8112  141.5404  169.0149 N.ar    1  UNL1       -0.2238
      5 C         142.1446  142.2263  169.0527 C.ar    1  UNL1        0.2000
      6 N         143.1082  142.0559  167.9158 N.ar    1  UNL1       -0.2089
      7 C         142.7383  141.1996  166.7412 C.ar    1  UNL1        0.1353
      8 C         141.4049  140.5136  166.7034 C.ar    1  UNL1        0.0493
      9 C         141.0350  139.6572  165.5287 C.ar    1  UNL1        0.0044
     10 C         139.7016  138.9713  165.4910 C.ar    1  UNL1        0.0280
     11 C         136.9310  137.6708  167.7773 C.3     1  UNL1        0.2525
     12 O         137.4046  138.4557  166.5900 O.3     1  UNL1       -0.4717
     13 N         143.7019  141.0291  165.6043 N.pl3   1  UNL1       -0.2961
     14 H         144.2289  140.2013  165.5256 H       1  UNL1        0.1537
     15 C         143.8625  142.1200  164.5874 C.ar    1  UNL1        0.0780
     16 C         143.5770  143.5438  164.9633 C.ar    1  UNL1        0.0170
     17 C         143.7376  144.6346  163.9463 C.ar    1  UNL1        0.0023
     18 C         144.1837  144.3017  162.5534 C.ar    1  UNL1        0.0138
     19 C         144.4691  142.8779  162.1774 C.ar    1  UNL1        0.0863
     20 CL        144.9151  142.5450  160.7845 Cl      1  UNL1       -0.0799
     21 C         144.3085  141.7870  163.1944 C.ar    1  UNL1        0.1639
     22 F         144.5939  140.3633  162.8185 F       1  UNL1       -0.2020
     23 C         139.3317  138.1149  164.3163 C.3     1  UNL1        0.1023
     24 N         138.9398  138.7532  163.0167 N.3     1  UNL1       -0.2646
     25 C         139.3872  138.1482  161.7190 C.3     1  UNL1        0.1049
     26 C         138.9952  138.7865  160.4194 C.3     1  UNL1        0.1595
     27 O         138.1558  140.0297  160.4175 O.3     1  UNL1       -0.3508
     28 C         137.7085  140.6346  161.7151 C.3     1  UNL1        0.1595
     29 C         138.1004  139.9963  163.0147 C.3     1  UNL1        0.1049
@<TRIPOS>BOND
     1    11    12    1
     2    12     1    1
     3     1     2   ar
     4     2     3   ar
     5     3     4   ar
     6     4     5   ar
     7     5     6   ar
     8     6     7   ar
     9     7    13    1
    10    13    15    1
    11    15    16   ar
    12    16    17   ar
    13    17    18   ar
    14    18    19   ar
    15    19    20    1
    16    19    21   ar
    17    21    22    1
    18     7     8   ar
    19     8     9   ar
    20     9    10   ar
    21    10    23    1
    22    23    24    1
    23    24    25    1
    24    25    26    1
    25    26    27    1
    26    27    28    1
    27    28    29    1
    28    10     1   ar
    29    29    24    1
    30     8     3   ar
    31    21    15   ar
    32    13    14    1
