@<TRIPOS>MOLECULE
*****
 36 40 0 0 0
SMALL
GASTEIGER

@<TRIPOS>ATOM
      1 C         142.9514  139.3717  164.1400 C.ar    1  UNL1        0.0878
      2 C         143.9916  138.9547  165.1369 C.ar    1  UNL1        0.1543
      3 F         145.3255  138.4564  164.6652 F       1  UNL1       -0.2028
      4 C         143.6980  139.0360  166.6056 C.ar    1  UNL1        0.0356
      5 C         142.3642  139.5342  167.0774 C.ar    1  UNL1        0.0580
      6 C         142.0706  139.6155  168.5462 C.ar    1  UNL1        0.1996
      7 O         143.1108  139.1985  169.5431 O.2     1  UNL1       -0.2864
      8 C         140.7367  140.1138  169.0179 C.ar    1  UNL1        0.0701
      9 C         139.6965  140.5308  168.0209 C.ar    1  UNL1        0.0801
     10 N         139.9901  140.4495  166.5522 N.ar    1  UNL1       -0.3270
     11 C         141.3239  139.9513  166.0804 C.ar    1  UNL1        0.0750
     12 C         141.6175  139.8700  164.6117 C.ar    1  UNL1        0.0890
     13 CL        140.5773  140.2870  163.6147 Cl      1  UNL1       -0.0794
     14 C         143.3259  138.5145  160.3729 C.3     1  UNL1        0.0930
     15 C         144.0675  139.8161  160.4491 C.3     1  UNL1        0.0427
     16 C         144.0175  140.2956  161.8695 C.3     1  UNL1        0.0927
     17 N         143.2450  139.2904  162.6712 N.pl3   1  UNL1       -0.3033
     18 C         142.8175  138.1896  161.7462 C.3     1  UNL1        0.1104
     19 C         142.0058  137.9994  158.1952 C.2     1  UNL1        0.2473
     20 O         141.0827  139.1460  158.4836 O.2     1  UNL1       -0.2729
     21 N         143.1274  137.6836  159.1399 N.am    1  UNL1       -0.3026
     22 H         143.7333  136.9311  158.9506 H       1  UNL1        0.1495
     23 C         141.8074  137.1686  156.9622 C.3     1  UNL1        0.2114
     24 C         144.7054  132.8607  157.9237 C.3     1  UNL1        0.0540
     25 C         143.9362  133.9325  157.2098 C.ar    1  UNL1        0.0801
     26 C         143.7240  134.0271  155.7280 C.ar    1  UNL1        0.0308
     27 C         142.9007  135.2509  155.4549 C.ar    1  UNL1        0.0577
     28 C         142.4528  135.7290  154.1056 C.3     1  UNL1        0.0518
     29 N         142.6041  135.9126  156.7679 N.ar    1  UNL1       -0.2458
     30 N         143.2441  135.0977  157.8526 N.ar    1  UNL1       -0.1735
     31 C         140.4431  140.1951  170.4866 C.2     1  UNL1        0.0774
     32 O         139.3464  139.3610  171.0795 O.co2   1  UNL1       -0.5444
     33 O         141.2462  141.1105  171.3625 O.co2   1  UNL1       -0.5444
     34 C         138.9498  140.8666  165.5552 C.3     1  UNL1        0.0857
     35 C         137.8720  140.5082  164.5755 C.3     1  UNL1        0.0245
     36 C         138.2259  141.9471  164.8081 C.3     1  UNL1        0.0245
@<TRIPOS>UNITY_ATOM_ATTR
32 1
charge -1
@<TRIPOS>BOND
     1    24    25    1
     2    25    26   ar
     3    26    27   ar
     4    27    28    1
     5    27    29   ar
     6    29    23    1
     7    23    19    1
     8    19    20    2
     9    19    21   am
    10    21    14    1
    11    14    15    1
    12    15    16    1
    13    16    17    1
    14    17     1    1
    15     1     2   ar
    16     2     3    1
    17     2     4   ar
    18     4     5   ar
    19     5     6   ar
    20     6     7    2
    21     6     8   ar
    22     8    31    1
    23    31    32   ar
    24    31    33   ar
    25     8     9   ar
    26     9    10   ar
    27    10    34    1
    28    34    35    1
    29    35    36    1
    30    10    11   ar
    31    11    12   ar
    32    12    13    1
    33    17    18    1
    34    29    30   ar
    35    30    25   ar
    36    18    14    1
    37    12     1   ar
    38    11     5   ar
    39    36    34    1
    40    21    22    1
@<TRIPOS>MOLECULE
*****
 36 40 0 0 0
SMALL
GASTEIGER

@<TRIPOS>ATOM
      1 C         139.9430  139.5367  162.8081 C.ar    1  UNL1        0.0878
      2 C         138.8088  138.7354  163.3750 C.ar    1  UNL1        0.1543
      3 F         137.9346  137.9248  162.4646 F       1  UNL1       -0.2028
      4 C         138.5487  138.7447  164.8522 C.ar    1  UNL1        0.0356
      5 C         139.4229  139.5553  165.7626 C.ar    1  UNL1        0.0580
      6 C         139.1627  139.5646  167.2399 C.ar    1  UNL1        0.1996
      7 O         138.0285  138.7633  167.8067 O.2     1  UNL1       -0.2864
      8 C         140.0369  140.3752  168.1502 C.ar    1  UNL1        0.0701
      9 C         141.1712  141.1765  167.5833 C.ar    1  UNL1        0.0801
     10 N         141.4313  141.1672  166.1061 N.ar    1  UNL1       -0.3270
     11 C         140.5571  140.3566  165.1957 C.ar    1  UNL1        0.0750
     12 C         140.8172  140.3473  163.7185 C.ar    1  UNL1        0.0890
     13 CL        141.9515  141.1486  163.1516 Cl      1  UNL1       -0.0794
     14 C         140.9849  138.8712  159.1288 C.3     1  UNL1        0.0930
     15 C         140.2220  140.1548  158.9864 C.3     1  UNL1        0.0427
     16 C         139.7388  140.5603  160.3473 C.3     1  UNL1        0.0927
     17 N         140.2031  139.5274  161.3308 N.pl3   1  UNL1       -0.3033
     18 C         140.9733  138.4834  160.5778 C.3     1  UNL1        0.1104
     19 C         140.8090  137.4800  156.9416 C.2     1  UNL1        0.2473
     20 O         139.3153  137.6129  156.9773 O.2     1  UNL1       -0.2729
     21 N         141.6438  138.1092  158.0174 N.am    1  UNL1       -0.3026
     22 H         142.6242  138.0220  157.9941 H       1  UNL1        0.1495
     23 C         141.4679  136.7180  155.8303 C.3     1  UNL1        0.2114
     24 C         144.6310  133.1699  158.1294 C.3     1  UNL1        0.0540
     25 C         143.6622  133.8169  157.1846 C.ar    1  UNL1        0.0801
     26 C         143.0329  133.1696  155.9868 C.ar    1  UNL1        0.0308
     27 C         142.1344  134.1775  155.3336 C.ar    1  UNL1        0.0577
     28 C         141.3071  133.9543  154.1025 C.3     1  UNL1        0.0518
     29 N         142.2083  135.4478  156.1278 N.ar    1  UNL1       -0.2458
     30 N         143.1525  135.2250  157.2718 N.ar    1  UNL1       -0.1735
     31 C         139.7768  140.3845  169.6275 C.2     1  UNL1        0.0774
     32 O         140.4137  139.3503  170.5077 O.co2   1  UNL1       -0.5444
     33 O         138.8798  141.4281  170.2245 O.co2   1  UNL1       -0.5444
     34 C         142.5655  141.9685  165.5392 C.3     1  UNL1        0.0857
     35 C         143.0861  143.2448  164.9476 C.3     1  UNL1        0.0245
     36 C         144.0095  142.0801  165.1490 C.3     1  UNL1        0.0245
@<TRIPOS>UNITY_ATOM_ATTR
32 1
charge -1
@<TRIPOS>BOND
     1    24    25    1
     2    25    26   ar
     3    26    27   ar
     4    27    28    1
     5    27    29   ar
     6    29    23    1
     7    23    19    1
     8    19    20    2
     9    19    21   am
    10    21    14    1
    11    14    15    1
    12    15    16    1
    13    16    17    1
    14    17     1    1
    15     1     2   ar
    16     2     3    1
    17     2     4   ar
    18     4     5   ar
    19     5     6   ar
    20     6     7    2
    21     6     8   ar
    22     8    31    1
    23    31    32   ar
    24    31    33   ar
    25     8     9   ar
    26     9    10   ar
    27    10    34    1
    28    34    35    1
    29    35    36    1
    30    10    11   ar
    31    11    12   ar
    32    12    13    1
    33    17    18    1
    34    29    30   ar
    35    30    25   ar
    36    18    14    1
    37    12     1   ar
    38    11     5   ar
    39    36    34    1
    40    21    22    1
@<TRIPOS>MOLECULE
*****
 36 40 0 0 0
SMALL
GASTEIGER

@<TRIPOS>ATOM
      1 C         139.3207  139.7536  163.4602 C.ar    1  UNL1        0.0878
      2 C         138.8848  138.7024  164.4374 C.ar    1  UNL1        0.1543
      3 F         138.3304  137.4002  163.9404 F       1  UNL1       -0.2028
      4 C         139.0033  138.9534  165.9114 C.ar    1  UNL1        0.0356
      5 C         139.5577  140.2556  166.4083 C.ar    1  UNL1        0.0580
      6 C         139.6762  140.5065  167.8825 C.ar    1  UNL1        0.1996
      7 O         139.2403  139.4553  168.8597 O.2     1  UNL1       -0.2864
      8 C         140.2306  141.8087  168.3794 C.ar    1  UNL1        0.0701
      9 C         140.6665  142.8600  167.4022 C.ar    1  UNL1        0.0801
     10 N         140.5480  142.6090  165.9281 N.ar    1  UNL1       -0.3270
     11 C         139.9936  141.3068  165.4312 C.ar    1  UNL1        0.0750
     12 C         139.8751  141.0558  163.9571 C.ar    1  UNL1        0.0890
     13 CL        140.3110  142.1071  162.9799 Cl      1  UNL1       -0.0794
     14 C         138.4912  139.6465  159.6699 C.3     1  UNL1        0.0930
     15 C         139.5486  138.5867  159.7653 C.3     1  UNL1        0.0427
     16 C         139.9880  138.4979  161.1968 C.3     1  UNL1        0.0927
     17 N         139.2022  139.5027  161.9861 N.pl3   1  UNL1       -0.3033
     18 C         138.2772  140.2125  161.0424 C.3     1  UNL1        0.1104
     19 C         137.9804  141.4439  157.8649 C.2     1  UNL1        0.2473
     20 O         138.9044  142.4016  158.5571 O.2     1  UNL1       -0.2729
     21 N         137.7739  140.0663  158.4213 N.am    1  UNL1       -0.3026
     22 H         137.1674  139.4378  157.9670 H       1  UNL1        0.1495
     23 C         137.2631  141.8638  156.6162 C.3     1  UNL1        0.2114
     24 C         132.9616  138.8034  156.7213 C.3     1  UNL1        0.0540
     25 C         134.0089  139.7770  156.2685 C.ar    1  UNL1        0.0801
     26 C         134.0332  140.4974  154.9531 C.ar    1  UNL1        0.0308
     27 C         135.2552  141.3668  154.9232 C.ar    1  UNL1        0.0577
     28 C         135.6729  142.2621  153.7946 C.3     1  UNL1        0.0518
     29 N         135.9861  141.1837  156.2202 N.ar    1  UNL1       -0.2458
     30 N         135.2159  140.2012  157.0516 N.ar    1  UNL1       -0.1735
     31 C         140.3491  142.0597  169.8535 C.2     1  UNL1        0.0774
     32 O         141.7032  142.1561  170.4914 O.co2   1  UNL1       -0.5444
     33 O         139.1134  142.2142  170.6897 O.co2   1  UNL1       -0.5444
     34 C         140.9839  143.6602  164.9510 C.3     1  UNL1        0.0857
     35 C         140.6596  144.8336  164.0745 C.3     1  UNL1        0.0245
     36 C         142.0631  144.3077  164.1349 C.3     1  UNL1        0.0245
@<TRIPOS>UNITY_ATOM_ATTR
32 1
charge -1
@<TRIPOS>BOND
     1    24    25    1
     2    25    26   ar
     3    26    27   ar
     4    27    28    1
     5    27    29   ar
     6    29    23    1
     7    23    19    1
     8    19    20    2
     9    19    21   am
    10    21    14    1
    11    14    15    1
    12    15    16    1
    13    16    17    1
    14    17     1    1
    15     1     2   ar
    16     2     3    1
    17     2     4   ar
    18     4     5   ar
    19     5     6   ar
    20     6     7    2
    21     6     8   ar
    22     8    31    1
    23    31    32   ar
    24    31    33   ar
    25     8     9   ar
    26     9    10   ar
    27    10    34    1
    28    34    35    1
    29    35    36    1
    30    10    11   ar
    31    11    12   ar
    32    12    13    1
    33    17    18    1
    34    29    30   ar
    35    30    25   ar
    36    18    14    1
    37    12     1   ar
    38    11     5   ar
    39    36    34    1
    40    21    22    1
@<TRIPOS>MOLECULE
*****
 36 40 0 0 0
SMALL
GASTEIGER

@<TRIPOS>ATOM
      1 C         142.8594  141.0429  164.6209 C.ar    1  UNL1        0.0878
      2 C         143.7923  141.9246  165.3969 C.ar    1  UNL1        0.1543
      3 F         145.0669  142.4050  164.7685 F       1  UNL1       -0.2028
      4 C         143.4507  142.3260  166.8012 C.ar    1  UNL1        0.0356
      5 C         142.1761  141.8457  167.4295 C.ar    1  UNL1        0.0580
      6 C         141.8345  142.2471  168.8339 C.ar    1  UNL1        0.1996
      7 O         142.7675  143.1288  169.6099 O.2     1  UNL1       -0.2864
      8 C         140.5600  141.7667  169.4622 C.ar    1  UNL1        0.0701
      9 C         139.6270  140.8850  168.6862 C.ar    1  UNL1        0.0801
     10 N         139.9687  140.4836  167.2818 N.ar    1  UNL1       -0.3270
     11 C         141.2432  140.9640  166.6535 C.ar    1  UNL1        0.0750
     12 C         141.5848  140.5626  165.2492 C.ar    1  UNL1        0.0890
     13 CL        140.6519  139.6809  164.4731 Cl      1  UNL1       -0.0794
     14 C         143.4012  140.6486  160.7977 C.3     1  UNL1        0.0930
     15 C         144.0520  139.3992  161.3131 C.3     1  UNL1        0.0427
     16 C         143.9283  139.3949  162.8080 C.3     1  UNL1        0.0927
     17 N         143.2010  140.6415  163.2165 N.pl3   1  UNL1       -0.3033
     18 C         142.8752  141.4163  161.9741 C.3     1  UNL1        0.1104
     19 C         144.1848  142.1383  158.8186 C.2     1  UNL1        0.2473
     20 O         145.1808  142.8089  159.7178 O.2     1  UNL1       -0.2729
     21 N         143.2950  141.0582  159.3586 N.am    1  UNL1       -0.3026
     22 H         142.6413  140.6181  158.7685 H       1  UNL1        0.1495
     23 C         144.0786  142.5480  157.3796 C.3     1  UNL1        0.2114
     24 C         148.9487  141.7469  155.5034 C.3     1  UNL1        0.0540
     25 C         147.4622  141.9322  155.5804 C.ar    1  UNL1        0.0801
     26 C         146.5094  141.9069  154.4223 C.ar    1  UNL1        0.0308
     27 C         145.1259  142.1344  154.9553 C.ar    1  UNL1        0.0577
     28 C         143.8658  142.1868  154.1433 C.3     1  UNL1        0.0518
     29 N         145.2237  142.3004  156.4428 N.ar    1  UNL1       -0.2458
     30 N         146.6677  142.1755  156.8292 N.ar    1  UNL1       -0.1735
     31 C         140.2184  142.1681  170.8666 C.2     1  UNL1        0.0774
     32 O         139.3240  143.3468  171.1132 O.co2   1  UNL1       -0.5444
     33 O         140.7711  141.3907  172.0243 O.co2   1  UNL1       -0.5444
     34 C         139.0357  139.6019  166.5059 C.3     1  UNL1        0.0857
     35 C         138.4376  138.2504  166.2495 C.3     1  UNL1        0.0245
     36 C         138.0180  139.4262  165.4181 C.3     1  UNL1        0.0245
@<TRIPOS>UNITY_ATOM_ATTR
32 1
charge -1
@<TRIPOS>BOND
     1    24    25    1
     2    25    26   ar
     3    26    27   ar
     4    27    28    1
     5    27    29   ar
     6    29    23    1
     7    23    19    1
     8    19    20    2
     9    19    21   am
    10    21    14    1
    11    14    15    1
    12    15    16    1
    13    16    17    1
    14    17     1    1
    15     1     2   ar
    16     2     3    1
    17     2     4   ar
    18     4     5   ar
    19     5     6   ar
    20     6     7    2
    21     6     8   ar
    22     8    31    1
    23    31    32   ar
    24    31    33   ar
    25     8     9   ar
    26     9    10   ar
    27    10    34    1
    28    34    35    1
    29    35    36    1
    30    10    11   ar
    31    11    12   ar
    32    12    13    1
    33    17    18    1
    34    29    30   ar
    35    30    25   ar
    36    18    14    1
    37    12     1   ar
    38    11     5   ar
    39    36    34    1
    40    21    22    1
@<TRIPOS>MOLECULE
*****
 36 40 0 0 0
SMALL
GASTEIGER

@<TRIPOS>ATOM
      1 C         140.7848  139.5941  164.4053 C.ar    1  UNL1        0.0878
      2 C         141.5707  138.6854  165.3034 C.ar    1  UNL1        0.1543
      3 F         141.9932  137.3311  164.8162 F       1  UNL1       -0.2028
      4 C         141.9342  139.1310  166.6888 C.ar    1  UNL1        0.0356
      5 C         141.5118  140.4853  167.1760 C.ar    1  UNL1        0.0580
      6 C         141.8753  140.9309  168.5615 C.ar    1  UNL1        0.1996
      7 O         142.6612  140.0223  169.4596 O.2     1  UNL1       -0.2864
      8 C         141.4528  142.2852  169.0488 C.ar    1  UNL1        0.0701
      9 C         140.6669  143.1939  168.1506 C.ar    1  UNL1        0.0801
     10 N         140.3034  142.7483  166.7652 N.ar    1  UNL1       -0.3270
     11 C         140.7259  141.3940  166.2780 C.ar    1  UNL1        0.0750
     12 C         140.3624  140.9484  164.8926 C.ar    1  UNL1        0.0890
     13 CL        139.5764  141.8571  163.9944 Cl      1  UNL1       -0.0794
     14 C         140.5329  138.6880  160.6395 C.3     1  UNL1        0.0930
     15 C         139.1911  138.2376  161.1364 C.3     1  UNL1        0.0427
     16 C         139.1222  138.5221  162.6076 C.3     1  UNL1        0.0927
     17 N         140.4213  139.1485  163.0199 N.pl3   1  UNL1       -0.3033
     18 C         141.2931  139.2510  161.8036 C.3     1  UNL1        0.1104
     19 C         142.2666  137.8056  158.9174 C.2     1  UNL1        0.2473
     20 O         143.0111  137.1145  160.0211 O.2     1  UNL1       -0.2729
     21 N         141.0274  138.5924  159.2266 N.am    1  UNL1       -0.3026
     22 H         140.5388  139.0459  158.5023 H       1  UNL1        0.1495
     23 C         142.7611  137.7099  157.5045 C.3     1  UNL1        0.2114
     24 C         143.8150  132.8867  155.6320 C.3     1  UNL1        0.0540
     25 C         143.1347  134.1970  155.8965 C.ar    1  UNL1        0.0801
     26 C         141.8245  134.6428  155.3180 C.ar    1  UNL1        0.0308
     27 C         141.5251  136.0130  155.8500 C.ar    1  UNL1        0.0577
     28 C         140.3133  136.8373  155.5307 C.3     1  UNL1        0.0518
     29 N         142.6502  136.4140  156.7572 N.ar    1  UNL1       -0.2458
     30 N         143.6450  135.2917  156.7860 N.ar    1  UNL1       -0.1735
     31 C         141.8163  142.7308  170.4341 C.2     1  UNL1        0.0774
     32 O         142.9318  143.7128  170.6376 O.co2   1  UNL1       -0.5444
     33 O         141.0643  142.1945  171.6160 O.co2   1  UNL1       -0.5444
     34 C         139.5175  143.6570  165.8671 C.3     1  UNL1        0.0857
     35 C         138.1989  144.1924  165.3931 C.3     1  UNL1        0.0245
     36 C         139.4748  144.6954  164.7856 C.3     1  UNL1        0.0245
@<TRIPOS>UNITY_ATOM_ATTR
32 1
charge -1
@<TRIPOS>BOND
     1    24    25    1
     2    25    26   ar
     3    26    27   ar
     4    27    28    1
     5    27    29   ar
     6    29    23    1
     7    23    19    1
     8    19    20    2
     9    19    21   am
    10    21    14    1
    11    14    15    1
    12    15    16    1
    13    16    17    1
    14    17     1    1
    15     1     2   ar
    16     2     3    1
    17     2     4   ar
    18     4     5   ar
    19     5     6   ar
    20     6     7    2
    21     6     8   ar
    22     8    31    1
    23    31    32   ar
    24    31    33   ar
    25     8     9   ar
    26     9    10   ar
    27    10    34    1
    28    34    35    1
    29    35    36    1
    30    10    11   ar
    31    11    12   ar
    32    12    13    1
    33    17    18    1
    34    29    30   ar
    35    30    25   ar
    36    18    14    1
    37    12     1   ar
    38    11     5   ar
    39    36    34    1
    40    21    22    1
@<TRIPOS>MOLECULE
*****
 36 40 0 0 0
SMALL
GASTEIGER

@<TRIPOS>ATOM
      1 C         142.1090  142.4616  163.8833 C.ar    1  UNL1        0.0878
      2 C         143.2123  143.2101  164.5705 C.ar    1  UNL1        0.1543
      3 F         144.0546  144.1812  163.7975 F       1  UNL1       -0.2028
      4 C         143.4733  142.9876  166.0308 C.ar    1  UNL1        0.0356
      5 C         142.6310  142.0166  166.8038 C.ar    1  UNL1        0.0580
      6 C         142.8921  141.7941  168.2641 C.ar    1  UNL1        0.1996
      7 O         143.9954  142.5426  168.9513 O.2     1  UNL1       -0.2864
      8 C         142.0497  140.8231  169.0371 C.ar    1  UNL1        0.0701
      9 C         140.9463  140.0745  168.3498 C.ar    1  UNL1        0.0801
     10 N         140.6853  140.2970  166.8896 N.ar    1  UNL1       -0.3270
     11 C         141.5277  141.2681  166.1166 C.ar    1  UNL1        0.0750
     12 C         141.2666  141.4906  164.6564 C.ar    1  UNL1        0.0890
     13 CL        140.1633  140.7420  163.9691 Cl      1  UNL1       -0.0794
     14 C         140.9397  143.5527  160.3466 C.3     1  UNL1        0.0930
     15 C         141.9526  142.5003  160.0052 C.3     1  UNL1        0.0427
     16 C         142.5139  141.9635  161.2885 C.3     1  UNL1        0.0927
     17 N         141.8479  142.6841  162.4230 N.pl3   1  UNL1       -0.3033
     18 C         140.8750  143.6662  161.8409 C.3     1  UNL1        0.1104
     19 C         140.7966  145.4080  158.5335 C.2     1  UNL1        0.2473
     20 O         142.2668  145.6662  158.6818 O.2     1  UNL1       -0.2729
     21 N         140.1331  144.3512  159.3660 N.am    1  UNL1       -0.3026
     22 H         139.1682  144.1817  159.2687 H       1  UNL1        0.1495
     23 C         139.9900  146.2065  157.5529 C.3     1  UNL1        0.2114
     24 C         142.3842  145.1573  152.9652 C.3     1  UNL1        0.0540
     25 C         141.5135  145.7952  154.0068 C.ar    1  UNL1        0.0801
     26 C         140.6144  146.9779  153.8005 C.ar    1  UNL1        0.0308
     27 C         139.9343  147.2760  155.1038 C.ar    1  UNL1        0.0577
     28 C         138.9485  148.3790  155.3518 C.3     1  UNL1        0.0518
     29 N         140.4130  146.2774  156.1155 N.ar    1  UNL1       -0.2458
     30 N         141.3891  145.3622  155.4375 N.ar    1  UNL1       -0.1735
     31 C         142.3107  140.6006  170.4973 C.2     1  UNL1        0.0774
     32 O         141.3835  141.1834  171.5223 O.co2   1  UNL1       -0.5444
     33 O         143.4990  139.7952  170.9327 O.co2   1  UNL1       -0.5444
     34 C         139.5820  139.5485  166.2024 C.3     1  UNL1        0.0857
     35 C         139.0996  138.3369  165.4612 C.3     1  UNL1        0.0245
     36 C         138.1534  139.4635  165.7533 C.3     1  UNL1        0.0245
@<TRIPOS>UNITY_ATOM_ATTR
32 1
charge -1
@<TRIPOS>BOND
     1    24    25    1
     2    25    26   ar
     3    26    27   ar
     4    27    28    1
     5    27    29   ar
     6    29    23    1
     7    23    19    1
     8    19    20    2
     9    19    21   am
    10    21    14    1
    11    14    15    1
    12    15    16    1
    13    16    17    1
    14    17     1    1
    15     1     2   ar
    16     2     3    1
    17     2     4   ar
    18     4     5   ar
    19     5     6   ar
    20     6     7    2
    21     6     8   ar
    22     8    31    1
    23    31    32   ar
    24    31    33   ar
    25     8     9   ar
    26     9    10   ar
    27    10    34    1
    28    34    35    1
    29    35    36    1
    30    10    11   ar
    31    11    12   ar
    32    12    13    1
    33    17    18    1
    34    29    30   ar
    35    30    25   ar
    36    18    14    1
    37    12     1   ar
    38    11     5   ar
    39    36    34    1
    40    21    22    1
@<TRIPOS>MOLECULE
*****
 36 40 0 0 0
SMALL
GASTEIGER

@<TRIPOS>ATOM
      1 C         142.8028  141.5005  164.2332 C.ar    1  UNL1        0.0878
      2 C         143.8282  142.2713  165.0106 C.ar    1  UNL1        0.1543
      3 F         145.0407  142.8177  164.3168 F       1  UNL1       -0.2028
      4 C         143.6410  142.4957  166.4818 C.ar    1  UNL1        0.0356
      5 C         142.4286  141.9493  167.1756 C.ar    1  UNL1        0.0580
      6 C         142.2415  142.1738  168.6470 C.ar    1  UNL1        0.1996
      7 O         143.2668  142.9446  169.4244 O.2     1  UNL1       -0.2864
      8 C         141.0290  141.6274  169.3407 C.ar    1  UNL1        0.0701
      9 C         140.0036  140.8565  168.5632 C.ar    1  UNL1        0.0801
     10 N         140.1907  140.6321  167.0920 N.ar    1  UNL1       -0.3270
     11 C         141.4032  141.1785  166.3982 C.ar    1  UNL1        0.0750
     12 C         141.5903  140.9541  164.9270 C.ar    1  UNL1        0.0890
     13 CL        140.5650  140.1833  164.1494 Cl      1  UNL1       -0.0794
     14 C         143.3885  140.1995  160.6234 C.3     1  UNL1        0.0930
     15 C         143.1672  141.6617  160.3722 C.3     1  UNL1        0.0427
     16 C         142.9209  142.3270  161.6938 C.3     1  UNL1        0.0927
     17 N         142.9899  141.2761  162.7619 N.pl3   1  UNL1       -0.3033
     18 C         143.2789  139.9612  162.1003 C.3     1  UNL1        0.1104
     19 C         142.5658  138.2680  159.0929 C.2     1  UNL1        0.2473
     20 O         141.1802  138.4186  159.6476 O.2     1  UNL1       -0.2729
     21 N         143.6699  139.1585  159.5808 N.am    1  UNL1       -0.3026
     22 H         144.5793  139.0596  159.2168 H       1  UNL1        0.1495
     23 C         142.8472  137.2270  158.0503 C.3     1  UNL1        0.2114
     24 C         138.6004  137.5622  154.9306 C.3     1  UNL1        0.0540
     25 C         139.8695  137.0758  155.5652 C.ar    1  UNL1        0.0801
     26 C         140.6168  135.8282  155.1983 C.ar    1  UNL1        0.0308
     27 C         141.8233  135.7329  156.0845 C.ar    1  UNL1        0.0577
     28 C         142.8511  134.6406  156.0603 C.3     1  UNL1        0.0518
     29 N         141.8215  136.9217  156.9992 N.ar    1  UNL1       -0.2458
     30 N         140.6140  137.7516  156.6783 N.ar    1  UNL1       -0.1735
     31 C         140.8419  141.8518  170.8120 C.2     1  UNL1        0.0774
     32 O         139.8043  142.8204  171.2969 O.co2   1  UNL1       -0.5444
     33 O         141.6923  141.1075  171.7984 O.co2   1  UNL1       -0.5444
     34 C         139.1654  139.8613  166.3145 C.3     1  UNL1        0.0857
     35 C         138.0218  139.8333  165.3442 C.3     1  UNL1        0.0245
     36 C         138.5329  138.5543  165.9382 C.3     1  UNL1        0.0245
@<TRIPOS>UNITY_ATOM_ATTR
32 1
charge -1
@<TRIPOS>BOND
     1    24    25    1
     2    25    26   ar
     3    26    27   ar
     4    27    28    1
     5    27    29   ar
     6    29    23    1
     7    23    19    1
     8    19    20    2
     9    19    21   am
    10    21    14    1
    11    14    15    1
    12    15    16    1
    13    16    17    1
    14    17     1    1
    15     1     2   ar
    16     2     3    1
    17     2     4   ar
    18     4     5   ar
    19     5     6   ar
    20     6     7    2
    21     6     8   ar
    22     8    31    1
    23    31    32   ar
    24    31    33   ar
    25     8     9   ar
    26     9    10   ar
    27    10    34    1
    28    34    35    1
    29    35    36    1
    30    10    11   ar
    31    11    12   ar
    32    12    13    1
    33    17    18    1
    34    29    30   ar
    35    30    25   ar
    36    18    14    1
    37    12     1   ar
    38    11     5   ar
    39    36    34    1
    40    21    22    1
@<TRIPOS>MOLECULE
*****
 36 40 0 0 0
SMALL
GASTEIGER

@<TRIPOS>ATOM
      1 C         139.9155  139.3537  164.5757 C.ar    1  UNL1        0.0878
      2 C         139.0086  138.6419  165.5354 C.ar    1  UNL1        0.1543
      3 F         138.1905  137.4745  165.0687 F       1  UNL1       -0.2028
      4 C         138.9199  139.0976  166.9617 C.ar    1  UNL1        0.0356
      5 C         139.7380  140.2651  167.4283 C.ar    1  UNL1        0.0580
      6 C         139.6493  140.7207  168.8548 C.ar    1  UNL1        0.1996
      7 O         138.7425  140.0089  169.8144 O.2     1  UNL1       -0.2864
      8 C         140.4674  141.8882  169.3214 C.ar    1  UNL1        0.0701
      9 C         141.3743  142.6000  168.3616 C.ar    1  UNL1        0.0801
     10 N         141.4630  142.1443  166.9353 N.ar    1  UNL1       -0.3270
     11 C         140.6449  140.9768  166.4687 C.ar    1  UNL1        0.0750
     12 C         140.7336  140.5212  165.0423 C.ar    1  UNL1        0.0890
     13 CL        141.6404  141.2329  164.0826 Cl      1  UNL1       -0.0794
     14 C         140.8753  138.3490  160.9515 C.3     1  UNL1        0.0930
     15 C         139.4064  138.0448  160.9572 C.3     1  UNL1        0.0427
     16 C         138.8681  138.3842  162.3156 C.3     1  UNL1        0.0927
     17 N         140.0042  138.8981  163.1493 N.pl3   1  UNL1       -0.3033
     18 C         141.2447  138.8763  162.3062 C.3     1  UNL1        0.1104
     19 C         142.0233  139.2723  158.8114 C.2     1  UNL1        0.2473
     20 O         141.3009  140.5753  158.9861 O.2     1  UNL1       -0.2729
     21 N         141.8104  138.1591  159.7941 N.am    1  UNL1       -0.3026
     22 H         142.2845  137.3039  159.6795 H       1  UNL1        0.1495
     23 C         142.9584  139.0824  157.6541 C.3     1  UNL1        0.2114
     24 C         143.0694  133.8443  156.9985 C.3     1  UNL1        0.0540
     25 C         143.1731  135.3174  156.7356 C.ar    1  UNL1        0.0801
     26 C         143.5749  135.9554  155.4390 C.ar    1  UNL1        0.0308
     27 C         143.5434  137.4434  155.6252 C.ar    1  UNL1        0.0577
     28 C         143.8749  138.4697  154.5827 C.3     1  UNL1        0.0518
     29 N         143.1221  137.7251  157.0370 N.ar    1  UNL1       -0.2458
     30 N         142.8933  136.4111  157.7233 N.ar    1  UNL1       -0.1735
     31 C         140.3787  142.3438  170.7477 C.2     1  UNL1        0.0774
     32 O         141.4037  141.8909  171.7449 O.co2   1  UNL1       -0.5444
     33 O         139.2650  143.2525  171.1770 O.co2   1  UNL1       -0.5444
     34 C         142.3698  142.8561  165.9756 C.3     1  UNL1        0.0857
     35 C         143.7489  143.1379  165.4575 C.3     1  UNL1        0.0245
     36 C         142.5613  143.8070  164.8316 C.3     1  UNL1        0.0245
@<TRIPOS>UNITY_ATOM_ATTR
32 1
charge -1
@<TRIPOS>BOND
     1    24    25    1
     2    25    26   ar
     3    26    27   ar
     4    27    28    1
     5    27    29   ar
     6    29    23    1
     7    23    19    1
     8    19    20    2
     9    19    21   am
    10    21    14    1
    11    14    15    1
    12    15    16    1
    13    16    17    1
    14    17     1    1
    15     1     2   ar
    16     2     3    1
    17     2     4   ar
    18     4     5   ar
    19     5     6   ar
    20     6     7    2
    21     6     8   ar
    22     8    31    1
    23    31    32   ar
    24    31    33   ar
    25     8     9   ar
    26     9    10   ar
    27    10    34    1
    28    34    35    1
    29    35    36    1
    30    10    11   ar
    31    11    12   ar
    32    12    13    1
    33    17    18    1
    34    29    30   ar
    35    30    25   ar
    36    18    14    1
    37    12     1   ar
    38    11     5   ar
    39    36    34    1
    40    21    22    1
@<TRIPOS>MOLECULE
*****
 36 40 0 0 0
SMALL
GASTEIGER

@<TRIPOS>ATOM
      1 C         142.3202  142.2179  163.9059 C.ar    1  UNL1        0.0878
      2 C         143.4135  142.9962  164.5761 C.ar    1  UNL1        0.1543
      3 F         144.3233  143.8661  163.7603 F       1  UNL1       -0.2028
      4 C         143.5969  142.9045  166.0619 C.ar    1  UNL1        0.0356
      5 C         142.6870  142.0346  166.8777 C.ar    1  UNL1        0.0580
      6 C         142.8705  141.9430  168.3637 C.ar    1  UNL1        0.1996
      7 O         143.9637  142.7212  169.0338 O.2     1  UNL1       -0.2864
      8 C         141.9607  141.0730  169.1794 C.ar    1  UNL1        0.0701
      9 C         140.8674  140.2948  168.5092 C.ar    1  UNL1        0.0801
     10 N         140.6840  140.3864  167.0233 N.ar    1  UNL1       -0.3270
     11 C         141.5938  141.2563  166.2076 C.ar    1  UNL1        0.0750
     12 C         141.4104  141.3480  164.7217 C.ar    1  UNL1        0.0890
     13 CL        140.3171  140.5697  164.0515 Cl      1  UNL1       -0.0794
     14 C         141.3522  142.9994  160.2292 C.3     1  UNL1        0.0930
     15 C         142.3566  141.9018  160.0375 C.3     1  UNL1        0.0427
     16 C         142.8414  141.4755  161.3915 C.3     1  UNL1        0.0927
     17 N         142.1368  142.3096  162.4200 N.pl3   1  UNL1       -0.3033
     18 C         141.2164  143.2513  161.7016 C.3     1  UNL1        0.1104
     19 C         141.3391  144.6892  158.2558 C.2     1  UNL1        0.2473
     20 O         142.8036  144.9406  158.4614 O.2     1  UNL1       -0.2729
     21 N         140.6135  143.7186  159.1398 N.am    1  UNL1       -0.3026
     22 H         139.6523  143.5537  159.0049 H       1  UNL1        0.1495
     23 C         140.6004  145.4085  157.1664 C.3     1  UNL1        0.2114
     24 C         136.7497  141.9905  155.9958 C.3     1  UNL1        0.0540
     25 C         137.6013  143.2250  156.0248 C.ar    1  UNL1        0.0801
     26 C         137.3585  144.4821  155.2436 C.ar    1  UNL1        0.0308
     27 C         138.4524  145.4531  155.5761 C.ar    1  UNL1        0.0577
     28 C         138.6012  146.8380  155.0195 C.3     1  UNL1        0.0518
     29 N         139.3712  144.7960  156.5629 N.ar    1  UNL1       -0.2458
     30 N         138.8453  143.4189  156.8402 N.ar    1  UNL1       -0.1735
     31 C         142.1441  140.9814  170.6653 C.2     1  UNL1        0.0774
     32 O         143.0064  139.9019  171.2494 O.co2   1  UNL1       -0.5444
     33 O         141.4652  141.9692  171.5672 O.co2   1  UNL1       -0.5444
     34 C         139.5908  139.6082  166.3532 C.3     1  UNL1        0.0857
     35 C         138.1591  139.4865  165.9225 C.3     1  UNL1        0.0245
     36 C         139.1288  138.3819  165.6233 C.3     1  UNL1        0.0245
@<TRIPOS>UNITY_ATOM_ATTR
32 1
charge -1
@<TRIPOS>BOND
     1    24    25    1
     2    25    26   ar
     3    26    27   ar
     4    27    28    1
     5    27    29   ar
     6    29    23    1
     7    23    19    1
     8    19    20    2
     9    19    21   am
    10    21    14    1
    11    14    15    1
    12    15    16    1
    13    16    17    1
    14    17     1    1
    15     1     2   ar
    16     2     3    1
    17     2     4   ar
    18     4     5   ar
    19     5     6   ar
    20     6     7    2
    21     6     8   ar
    22     8    31    1
    23    31    32   ar
    24    31    33   ar
    25     8     9   ar
    26     9    10   ar
    27    10    34    1
    28    34    35    1
    29    35    36    1
    30    10    11   ar
    31    11    12   ar
    32    12    13    1
    33    17    18    1
    34    29    30   ar
    35    30    25   ar
    36    18    14    1
    37    12     1   ar
    38    11     5   ar
    39    36    34    1
    40    21    22    1
