@<TRIPOS>MOLECULE
*****
 33 38 0 0 0
SMALL
GASTEIGER

@<TRIPOS>ATOM
      1 C         138.4768  140.1529  158.9209 C.2     1  UNL1        0.0866
      2 N         137.5839  140.5867  157.7964 N.2     1  UNL1       -0.1523
      3 N         138.0516  139.9062  156.5441 N.2     1  UNL1       -0.1523
      4 C         139.2337  139.0518  156.8948 C.2     1  UNL1        0.0858
      5 C         139.4964  139.2043  158.3637 C.3     1  UNL1        0.0883
      6 C         140.6784  138.3500  158.7142 C.3     1  UNL1        0.0384
      7 C         141.1462  137.6694  157.4620 C.ar    1  UNL1       -0.0205
      8 C         142.2699  136.7109  157.2004 C.ar    1  UNL1       -0.0071
      9 C         142.5006  136.1860  155.8144 C.ar    1  UNL1       -0.0064
     10 C         141.6077  136.6198  154.6898 C.ar    1  UNL1       -0.0029
     11 C         140.4840  137.5784  154.9514 C.ar    1  UNL1        0.0006
     12 C         140.2533  138.1032  156.3375 C.ar    1  UNL1        0.0117
     13 C         138.2401  140.5492  162.7748 C.ar    1  UNL1        0.0710
     14 C         138.3654  139.6905  161.5513 C.ar    1  UNL1        0.0165
     15 C         138.3690  140.5909  160.3515 C.ar    1  UNL1        0.0233
     16 C         138.2460  142.0060  160.8335 C.ar    1  UNL1        0.0373
     17 S         138.1663  141.9802  162.3312 S.2     1  UNL1       -0.0780
     18 C         138.1525  139.5755  165.6110 C.1     1  UNL1       -0.0388
     19 C         138.1963  140.0623  164.1929 C.1     1  UNL1       -0.0543
     20 C         138.1087  139.0886  167.0292 C.3     1  UNL1        0.2814
     21 O         139.3105  139.2447  167.9132 O.3     1  UNL1       -0.4612
     22 C         139.6676  140.5943  168.4619 C.ar    1  UNL1        0.1400
     23 C         140.3472  141.6044  167.5857 C.ar    1  UNL1        0.0369
     24 C         140.7043  142.9540  168.1345 C.ar    1  UNL1        0.0031
     25 C         140.3817  143.2935  169.5595 C.ar    1  UNL1        0.0002
     26 C         139.7021  142.2834  170.4358 C.ar    1  UNL1        0.0031
     27 C         139.3450  140.9338  169.8870 C.ar    1  UNL1        0.0369
     28 C         143.6243  135.2274  155.5527 C.3     1  UNL1        0.0998
     29 N         143.4098  133.7536  155.7316 N.3     1  UNL1       -0.2588
     30 C         144.4636  132.7454  156.0824 C.3     1  UNL1        0.0849
     31 C         143.8089  131.3980  156.1587 C.3     1  UNL1        0.0762
     32 S         142.3505  131.5734  155.8550 S.3     1  UNL1       -0.1212
     33 C         142.1038  133.0292  155.5910 C.3     1  UNL1        0.1316
@<TRIPOS>BOND
     1    18    19    3
     2    19    13    1
     3    13    14   ar
     4    14    15   ar
     5    15     1    1
     6     1     2    2
     7     2     3    1
     8     3     4    2
     9     4     5    1
    10     5     6    1
    11     6     7    1
    12     7     8   ar
    13     8     9   ar
    14     9    28    1
    15    28    29    1
    16    29    30    1
    17    30    31    1
    18    31    32    1
    19    32    33    1
    20     9    10   ar
    21    10    11   ar
    22    11    12   ar
    23    15    16   ar
    24    16    17   ar
    25    18    20    1
    26    20    21    1
    27    21    22    1
    28    22    23   ar
    29    23    24   ar
    30    24    25   ar
    31    25    26   ar
    32    26    27   ar
    33    17    13   ar
    34    27    22   ar
    35     5     1    1
    36    12     7   ar
    37    12     4    1
    38    33    29    1
@<TRIPOS>MOLECULE
*****
 33 38 0 0 0
SMALL
GASTEIGER

@<TRIPOS>ATOM
      1 C         139.2053  141.1661  161.4012 C.2     1  UNL1        0.0866
      2 N         138.1674  140.1537  161.0169 N.2     1  UNL1       -0.1523
      3 N         137.7400  139.4327  162.2610 N.2     1  UNL1       -0.1523
      4 C         138.5140  139.9997  163.4142 C.2     1  UNL1        0.0858
      5 C         139.4195  141.0709  162.8828 C.3     1  UNL1        0.0883
      6 C         140.1934  141.6378  164.0359 C.3     1  UNL1        0.0384
      7 C         139.7661  140.9169  165.2800 C.ar    1  UNL1       -0.0205
      8 C         140.1881  141.0516  166.7131 C.ar    1  UNL1       -0.0071
      9 C         139.5721  140.1739  167.7619 C.ar    1  UNL1       -0.0064
     10 C         138.5341  139.1614  167.3777 C.ar    1  UNL1       -0.0029
     11 C         138.1122  139.0268  165.9446 C.ar    1  UNL1        0.0006
     12 C         138.7281  139.9045  164.8958 C.ar    1  UNL1        0.0117
     13 C         140.3213  143.8178  158.7957 C.ar    1  UNL1        0.0710
     14 C         139.2451  143.0821  159.5378 C.ar    1  UNL1        0.0165
     15 C         139.9060  142.1082  160.4678 C.ar    1  UNL1        0.0233
     16 C         141.3907  142.2420  160.3004 C.ar    1  UNL1        0.0373
     17 S         141.6473  143.2985  159.2670 S.2     1  UNL1       -0.0780
     18 C         139.8963  145.9526  156.7313 C.1     1  UNL1       -0.0388
     19 C         140.1088  144.8852  157.7635 C.1     1  UNL1       -0.0543
     20 C         139.6838  147.0200  155.6991 C.3     1  UNL1        0.2814
     21 O         138.8631  148.2312  156.0306 O.3     1  UNL1       -0.4612
     22 C         138.9881  149.4726  155.1981 C.ar    1  UNL1        0.1400
     23 C         138.4609  150.7784  155.7148 C.ar    1  UNL1        0.0369
     24 C         138.5859  152.0199  154.8822 C.ar    1  UNL1        0.0031
     25 C         139.2382  151.9556  153.5331 C.ar    1  UNL1        0.0002
     26 C         139.7655  150.6498  153.0163 C.ar    1  UNL1        0.0031
     27 C         139.6404  149.4083  153.8488 C.ar    1  UNL1        0.0369
     28 C         139.9941  140.3085  169.1951 C.3     1  UNL1        0.0998
     29 N         141.1768  141.1593  169.5519 N.3     1  UNL1       -0.2588
     30 C         141.1269  142.5670  170.0674 C.3     1  UNL1        0.0849
     31 C         142.5364  143.0294  170.2900 C.3     1  UNL1        0.0762
     32 S         143.4574  141.9075  169.9120 S.3     1  UNL1       -0.1212
     33 C         142.6172  140.7517  169.4558 C.3     1  UNL1        0.1316
@<TRIPOS>BOND
     1    18    19    3
     2    19    13    1
     3    13    14   ar
     4    14    15   ar
     5    15     1    1
     6     1     2    2
     7     2     3    1
     8     3     4    2
     9     4     5    1
    10     5     6    1
    11     6     7    1
    12     7     8   ar
    13     8     9   ar
    14     9    28    1
    15    28    29    1
    16    29    30    1
    17    30    31    1
    18    31    32    1
    19    32    33    1
    20     9    10   ar
    21    10    11   ar
    22    11    12   ar
    23    15    16   ar
    24    16    17   ar
    25    18    20    1
    26    20    21    1
    27    21    22    1
    28    22    23   ar
    29    23    24   ar
    30    24    25   ar
    31    25    26   ar
    32    26    27   ar
    33    17    13   ar
    34    27    22   ar
    35     5     1    1
    36    12     7   ar
    37    12     4    1
    38    33    29    1
@<TRIPOS>MOLECULE
*****
 33 38 0 0 0
SMALL
GASTEIGER

@<TRIPOS>ATOM
      1 C         142.9470  143.2712  160.3120 C.2     1  UNL1        0.0866
      2 N         144.0457  142.6601  159.4937 N.2     1  UNL1       -0.1523
      3 N         143.8930  143.1398  158.0807 N.2     1  UNL1       -0.1523
      4 C         142.7000  144.0474  158.0256 C.2     1  UNL1        0.0858
      5 C         142.1153  144.1285  159.4046 C.3     1  UNL1        0.0883
      6 C         140.9223  145.0361  159.3496 C.3     1  UNL1        0.0384
      7 C         140.7696  145.5158  157.9365 C.ar    1  UNL1       -0.0205
      8 C         139.7721  146.4301  157.2893 C.ar    1  UNL1       -0.0071
      9 C         139.8733  146.7333  155.8238 C.ar    1  UNL1       -0.0064
     10 C         140.9719  146.1222  155.0055 C.ar    1  UNL1       -0.0029
     11 C         141.9694  145.2079  155.6528 C.ar    1  UNL1        0.0006
     12 C         141.8683  144.9047  157.1183 C.ar    1  UNL1        0.0117
     13 C         142.6235  142.0359  163.9774 C.ar    1  UNL1        0.0710
     14 C         142.9960  141.8005  162.5435 C.ar    1  UNL1        0.0165
     15 C         142.7199  143.0617  161.7798 C.ar    1  UNL1        0.0233
     16 C         142.1768  144.0765  162.7416 C.ar    1  UNL1        0.0373
     17 S         142.1172  143.4426  164.0998 S.2     1  UNL1       -0.0780
     18 C         142.8513  140.0433  166.2084 C.1     1  UNL1       -0.0388
     19 C         142.7374  141.0396  165.0929 C.1     1  UNL1       -0.0543
     20 C         142.9652  139.0470  167.3239 C.3     1  UNL1        0.2814
     21 O         142.2817  139.3063  168.6338 O.3     1  UNL1       -0.4612
     22 C         141.9950  140.7143  169.0644 C.ar    1  UNL1        0.1400
     23 C         140.6511  141.3227  168.7932 C.ar    1  UNL1        0.0369
     24 C         140.3644  142.7307  169.2238 C.ar    1  UNL1        0.0031
     25 C         141.4218  143.5303  169.9255 C.ar    1  UNL1        0.0002
     26 C         142.7659  142.9220  170.1967 C.ar    1  UNL1        0.0031
     27 C         143.0525  141.5140  169.7661 C.ar    1  UNL1        0.0369
     28 C         138.8757  147.6476  155.1764 C.3     1  UNL1        0.0998
     29 N         139.1345  149.1242  155.1254 N.3     1  UNL1       -0.2588
     30 C         138.3988  150.1756  155.9022 C.3     1  UNL1        0.0849
     31 C         138.9840  151.5099  155.5456 C.3     1  UNL1        0.0762
     32 S         140.0814  151.2832  154.5484 S.3     1  UNL1       -0.1212
     33 C         140.1743  149.8088  154.2887 C.3     1  UNL1        0.1316
@<TRIPOS>BOND
     1    18    19    3
     2    19    13    1
     3    13    14   ar
     4    14    15   ar
     5    15     1    1
     6     1     2    2
     7     2     3    1
     8     3     4    2
     9     4     5    1
    10     5     6    1
    11     6     7    1
    12     7     8   ar
    13     8     9   ar
    14     9    28    1
    15    28    29    1
    16    29    30    1
    17    30    31    1
    18    31    32    1
    19    32    33    1
    20     9    10   ar
    21    10    11   ar
    22    11    12   ar
    23    15    16   ar
    24    16    17   ar
    25    18    20    1
    26    20    21    1
    27    21    22    1
    28    22    23   ar
    29    23    24   ar
    30    24    25   ar
    31    25    26   ar
    32    26    27   ar
    33    17    13   ar
    34    27    22   ar
    35     5     1    1
    36    12     7   ar
    37    12     4    1
    38    33    29    1
@<TRIPOS>MOLECULE
*****
 33 38 0 0 0
SMALL
GASTEIGER

@<TRIPOS>ATOM
      1 C         139.2856  140.2524  163.5898 C.2     1  UNL1        0.0866
      2 N         137.8875  140.5385  163.1279 N.2     1  UNL1       -0.1523
      3 N         137.7855  140.1412  161.6850 N.2     1  UNL1       -0.1523
      4 C         139.1207  139.6096  161.2552 C.2     1  UNL1        0.0858
      5 C         140.0478  139.6784  162.4324 C.3     1  UNL1        0.0883
      6 C         141.3829  139.1468  162.0025 C.3     1  UNL1        0.0384
      7 C         141.2811  138.7495  160.5597 C.ar    1  UNL1       -0.0205
      8 C         142.2807  138.1643  159.6068 C.ar    1  UNL1       -0.0071
      9 C         141.8823  137.8651  158.1920 C.ar    1  UNL1       -0.0064
     10 C         140.4841  138.1512  157.7301 C.ar    1  UNL1       -0.0029
     11 C         139.4844  138.7364  158.6830 C.ar    1  UNL1        0.0006
     12 C         139.8829  139.0356  160.0978 C.ar    1  UNL1        0.0117
     13 C         140.9572  140.1860  167.0922 C.ar    1  UNL1        0.0710
     14 C         140.6268  139.5276  165.7855 C.ar    1  UNL1        0.0165
     15 C         139.8266  140.4974  164.9672 C.ar    1  UNL1        0.0233
     16 C         139.6625  141.7549  165.7682 C.ar    1  UNL1        0.0373
     17 S         140.3612  141.5625  167.0815 S.2     1  UNL1       -0.0780
     18 C         142.5331  138.9641  169.3335 C.1     1  UNL1       -0.0388
     19 C         141.7451  139.5751  168.2129 C.1     1  UNL1       -0.0543
     20 C         143.3211  138.3532  170.4542 C.3     1  UNL1        0.2814
     21 O         143.8581  136.9590  170.3204 O.3     1  UNL1       -0.4612
     22 C         144.7250  136.3824  171.4002 C.ar    1  UNL1        0.1400
     23 C         144.6579  134.9170  171.7134 C.ar    1  UNL1        0.0369
     24 C         145.5248  134.3404  172.7932 C.ar    1  UNL1        0.0031
     25 C         146.4588  135.2291  173.5599 C.ar    1  UNL1        0.0002
     26 C         146.5259  136.6946  173.2467 C.ar    1  UNL1        0.0031
     27 C         145.6590  137.2712  172.1669 C.ar    1  UNL1        0.0369
     28 C         142.8820  137.2798  157.2390 C.3     1  UNL1        0.0998
     29 N         142.7538  135.8507  156.8017 N.3     1  UNL1       -0.2588
     30 C         143.4109  134.6681  157.4493 C.3     1  UNL1        0.0849
     31 C         143.0092  133.4398  156.6878 C.3     1  UNL1        0.0762
     32 S         142.1037  133.8633  155.5695 S.3     1  UNL1       -0.1212
     33 C         141.9458  135.3533  155.6398 C.3     1  UNL1        0.1316
@<TRIPOS>BOND
     1    18    19    3
     2    19    13    1
     3    13    14   ar
     4    14    15   ar
     5    15     1    1
     6     1     2    2
     7     2     3    1
     8     3     4    2
     9     4     5    1
    10     5     6    1
    11     6     7    1
    12     7     8   ar
    13     8     9   ar
    14     9    28    1
    15    28    29    1
    16    29    30    1
    17    30    31    1
    18    31    32    1
    19    32    33    1
    20     9    10   ar
    21    10    11   ar
    22    11    12   ar
    23    15    16   ar
    24    16    17   ar
    25    18    20    1
    26    20    21    1
    27    21    22    1
    28    22    23   ar
    29    23    24   ar
    30    24    25   ar
    31    25    26   ar
    32    26    27   ar
    33    17    13   ar
    34    27    22   ar
    35     5     1    1
    36    12     7   ar
    37    12     4    1
    38    33    29    1
@<TRIPOS>MOLECULE
*****
 33 38 0 0 0
SMALL
GASTEIGER

@<TRIPOS>ATOM
      1 C         141.3442  136.5001  155.7752 C.2     1  UNL1        0.0866
      2 N         142.2318  137.3953  156.5881 N.2     1  UNL1       -0.1523
      3 N         143.2605  136.5381  157.2642 N.2     1  UNL1       -0.1523
      4 C         143.0086  135.1131  156.8691 C.2     1  UNL1        0.0858
      5 C         141.8243  135.0897  155.9489 C.3     1  UNL1        0.0883
      6 C         141.5725  133.6647  155.5538 C.3     1  UNL1        0.0384
      7 C         142.6012  132.8075  156.2299 C.ar    1  UNL1       -0.0205
      8 C         142.8443  131.3275  156.2103 C.ar    1  UNL1       -0.0071
      9 C         143.9750  130.7427  157.0037 C.ar    1  UNL1       -0.0064
     10 C         144.8626  131.6379  157.8166 C.ar    1  UNL1       -0.0029
     11 C         144.6195  133.1179  157.8361 C.ar    1  UNL1        0.0006
     12 C         143.4888  133.7027  157.0428 C.ar    1  UNL1        0.0117
     13 C         138.1664  138.0711  154.1943 C.ar    1  UNL1        0.0710
     14 C         139.1345  137.9375  155.3323 C.ar    1  UNL1        0.0165
     15 C         140.1808  136.9384  154.9359 C.ar    1  UNL1        0.0233
     16 C         139.8594  136.4545  153.5530 C.ar    1  UNL1        0.0373
     17 S         138.6144  137.1546  153.0946 S.2     1  UNL1       -0.0780
     18 C         135.7573  139.8577  154.1292 C.1     1  UNL1       -0.0388
     19 C         136.9619  138.9644  154.1617 C.1     1  UNL1       -0.0543
     20 C         134.5528  140.7510  154.0966 C.3     1  UNL1        0.2814
     21 O         133.9895  141.2975  155.3750 O.3     1  UNL1       -0.4612
     22 C         133.0258  140.4777  156.1808 C.ar    1  UNL1        0.1400
     23 C         131.5497  140.7065  156.0443 C.ar    1  UNL1        0.0369
     24 C         130.5860  139.8867  156.8501 C.ar    1  UNL1        0.0031
     25 C         131.0985  138.8383  157.7924 C.ar    1  UNL1        0.0002
     26 C         132.5747  138.6095  157.9290 C.ar    1  UNL1        0.0031
     27 C         133.5384  139.4292  157.1232 C.ar    1  UNL1        0.0369
     28 C         144.2182  129.2626  156.9841 C.3     1  UNL1        0.0998
     29 N         143.4289  128.3609  157.8863 N.3     1  UNL1       -0.2588
     30 C         142.6726  127.1356  157.4660 C.3     1  UNL1        0.0849
     31 C         142.0335  126.5436  158.6871 C.3     1  UNL1        0.0762
     32 S         142.3949  127.4031  159.8622 S.3     1  UNL1       -0.1212
     33 C         143.2572  128.5262  159.3673 C.3     1  UNL1        0.1316
@<TRIPOS>BOND
     1    18    19    3
     2    19    13    1
     3    13    14   ar
     4    14    15   ar
     5    15     1    1
     6     1     2    2
     7     2     3    1
     8     3     4    2
     9     4     5    1
    10     5     6    1
    11     6     7    1
    12     7     8   ar
    13     8     9   ar
    14     9    28    1
    15    28    29    1
    16    29    30    1
    17    30    31    1
    18    31    32    1
    19    32    33    1
    20     9    10   ar
    21    10    11   ar
    22    11    12   ar
    23    15    16   ar
    24    16    17   ar
    25    18    20    1
    26    20    21    1
    27    21    22    1
    28    22    23   ar
    29    23    24   ar
    30    24    25   ar
    31    25    26   ar
    32    26    27   ar
    33    17    13   ar
    34    27    22   ar
    35     5     1    1
    36    12     7   ar
    37    12     4    1
    38    33    29    1
@<TRIPOS>MOLECULE
*****
 33 38 0 0 0
SMALL
GASTEIGER

@<TRIPOS>ATOM
      1 C         142.0808  137.1415  156.7542 C.2     1  UNL1        0.0866
      2 N         141.0142  137.3326  155.7170 N.2     1  UNL1       -0.1523
      3 N         140.7264  135.9975  155.0966 N.2     1  UNL1       -0.1523
      4 C         141.6152  134.9813  155.7505 C.2     1  UNL1        0.0858
      5 C         142.4522  135.6884  156.7749 C.3     1  UNL1        0.0883
      6 C         143.3410  134.6722  157.4287 C.3     1  UNL1        0.0384
      7 C         143.0533  133.3372  156.8084 C.ar    1  UNL1       -0.0205
      8 C         143.6247  131.9722  157.0541 C.ar    1  UNL1       -0.0071
      9 C         143.1295  130.7983  156.2625 C.ar    1  UNL1       -0.0064
     10 C         142.0629  130.9893  155.2252 C.ar    1  UNL1       -0.0029
     11 C         141.4915  132.3543  154.9796 C.ar    1  UNL1        0.0006
     12 C         141.9867  133.5282  155.7712 C.ar    1  UNL1        0.0117
     13 C         143.5157  139.4211  159.5489 C.ar    1  UNL1        0.0710
     14 C         142.9122  138.1243  159.0968 C.ar    1  UNL1        0.0165
     15 C         142.6721  138.2151  157.6189 C.ar    1  UNL1        0.0233
     16 C         143.1272  139.5679  157.1576 C.ar    1  UNL1        0.0373
     17 S         143.6485  140.3132  158.3504 S.2     1  UNL1       -0.0780
     18 C         144.3163  140.1094  162.3570 C.1     1  UNL1       -0.0388
     19 C         143.9160  139.7652  160.9529 C.1     1  UNL1       -0.0543
     20 C         144.7166  140.4535  163.7610 C.3     1  UNL1        0.2814
     21 O         143.7296  141.1046  164.6841 O.3     1  UNL1       -0.4612
     22 C         143.2504  142.4988  164.4071 C.ar    1  UNL1        0.1400
     23 C         141.7963  142.8355  164.5556 C.ar    1  UNL1        0.0369
     24 C         141.3171  144.2296  164.2786 C.ar    1  UNL1        0.0031
     25 C         142.2921  145.2871  163.8531 C.ar    1  UNL1        0.0002
     26 C         143.7463  144.9505  163.7046 C.ar    1  UNL1        0.0031
     27 C         144.2255  143.5563  163.9816 C.ar    1  UNL1        0.0369
     28 C         143.7010  129.4333  156.5081 C.3     1  UNL1        0.0998
     29 N         143.5878  128.8061  157.8660 N.3     1  UNL1       -0.2588
     30 C         144.5006  129.0535  159.0303 C.3     1  UNL1        0.0849
     31 C         144.0189  128.2217  160.1818 C.3     1  UNL1        0.0762
     32 S         142.8085  127.4601  159.7292 S.3     1  UNL1       -0.1212
     33 C         142.5421  127.8213  158.2980 C.3     1  UNL1        0.1316
@<TRIPOS>BOND
     1    18    19    3
     2    19    13    1
     3    13    14   ar
     4    14    15   ar
     5    15     1    1
     6     1     2    2
     7     2     3    1
     8     3     4    2
     9     4     5    1
    10     5     6    1
    11     6     7    1
    12     7     8   ar
    13     8     9   ar
    14     9    28    1
    15    28    29    1
    16    29    30    1
    17    30    31    1
    18    31    32    1
    19    32    33    1
    20     9    10   ar
    21    10    11   ar
    22    11    12   ar
    23    15    16   ar
    24    16    17   ar
    25    18    20    1
    26    20    21    1
    27    21    22    1
    28    22    23   ar
    29    23    24   ar
    30    24    25   ar
    31    25    26   ar
    32    26    27   ar
    33    17    13   ar
    34    27    22   ar
    35     5     1    1
    36    12     7   ar
    37    12     4    1
    38    33    29    1
@<TRIPOS>MOLECULE
*****
 33 38 0 0 0
SMALL
GASTEIGER

@<TRIPOS>ATOM
      1 C         138.6712  140.8151  158.2217 C.2     1  UNL1        0.0866
      2 N         138.4844  142.2957  158.0710 N.2     1  UNL1       -0.1523
      3 N         138.2994  142.8813  159.4396 N.2     1  UNL1       -0.1523
      4 C         138.3719  141.7624  160.4361 C.2     1  UNL1        0.0858
      5 C         138.6017  140.4855  159.6834 C.3     1  UNL1        0.0883
      6 C         138.6742  139.3667  160.6799 C.3     1  UNL1        0.0384
      7 C         138.4892  139.9522  162.0485 C.ar    1  UNL1       -0.0205
      8 C         138.4668  139.3284  163.4124 C.ar    1  UNL1       -0.0071
      9 C         138.2575  140.1852  164.6256 C.ar    1  UNL1       -0.0064
     10 C         138.0707  141.6659  164.4750 C.ar    1  UNL1       -0.0029
     11 C         138.0932  142.2897  163.1111 C.ar    1  UNL1        0.0006
     12 C         138.3024  141.4329  161.8978 C.ar    1  UNL1        0.0117
     13 C         139.6296  137.8960  155.8498 C.ar    1  UNL1        0.0710
     14 C         139.6726  138.5597  157.1944 C.ar    1  UNL1        0.0165
     15 C         138.8892  139.8359  157.1065 C.ar    1  UNL1        0.0233
     16 C         138.3622  139.9609  155.7077 C.ar    1  UNL1        0.0373
     17 S         138.8198  138.7620  154.9311 S.2     1  UNL1       -0.0780
     18 C         140.9345  135.2935  155.1255 C.1     1  UNL1       -0.0388
     19 C         140.2821  136.5948  155.4877 C.1     1  UNL1       -0.0543
     20 C         141.5869  133.9923  154.7634 C.3     1  UNL1        0.2814
     21 O         141.5257  132.8327  155.7130 O.3     1  UNL1       -0.4612
     22 C         142.7505  132.4225  156.4757 C.ar    1  UNL1        0.1400
     23 C         143.5207  133.4416  157.2620 C.ar    1  UNL1        0.0369
     24 C         144.7455  133.0314  158.0247 C.ar    1  UNL1        0.0031
     25 C         145.2000  131.6021  158.0010 C.ar    1  UNL1        0.0002
     26 C         144.4298  130.5830  157.2147 C.ar    1  UNL1        0.0031
     27 C         143.2050  130.9932  156.4520 C.ar    1  UNL1        0.0369
     28 C         138.2351  139.5614  165.9896 C.3     1  UNL1        0.0998
     29 N         139.3993  139.7450  166.9175 N.3     1  UNL1       -0.2588
     30 C         140.8478  139.7308  166.5283 C.3     1  UNL1        0.0849
     31 C         141.6631  139.9520  167.7678 C.3     1  UNL1        0.0762
     32 S         140.7184  140.1030  168.9231 S.3     1  UNL1       -0.1212
     33 C         139.3193  139.9750  168.3976 C.3     1  UNL1        0.1316
@<TRIPOS>BOND
     1    18    19    3
     2    19    13    1
     3    13    14   ar
     4    14    15   ar
     5    15     1    1
     6     1     2    2
     7     2     3    1
     8     3     4    2
     9     4     5    1
    10     5     6    1
    11     6     7    1
    12     7     8   ar
    13     8     9   ar
    14     9    28    1
    15    28    29    1
    16    29    30    1
    17    30    31    1
    18    31    32    1
    19    32    33    1
    20     9    10   ar
    21    10    11   ar
    22    11    12   ar
    23    15    16   ar
    24    16    17   ar
    25    18    20    1
    26    20    21    1
    27    21    22    1
    28    22    23   ar
    29    23    24   ar
    30    24    25   ar
    31    25    26   ar
    32    26    27   ar
    33    17    13   ar
    34    27    22   ar
    35     5     1    1
    36    12     7   ar
    37    12     4    1
    38    33    29    1
@<TRIPOS>MOLECULE
*****
 33 38 0 0 0
SMALL
GASTEIGER

@<TRIPOS>ATOM
      1 C         142.9111  138.4142  157.8335 C.2     1  UNL1        0.0866
      2 N         143.7948  139.5400  157.3846 N.2     1  UNL1       -0.1523
      3 N         144.3523  140.2075  158.6068 N.2     1  UNL1       -0.1523
      4 C         143.8129  139.4942  159.8112 C.2     1  UNL1        0.0858
      5 C         142.9222  138.3859  159.3332 C.3     1  UNL1        0.0883
      6 C         142.3830  137.6726  160.5375 C.3     1  UNL1        0.0384
      7 C         142.9403  138.3400  161.7598 C.ar    1  UNL1       -0.0205
      8 C         142.7573  138.0681  163.2235 C.ar    1  UNL1       -0.0071
      9 C         143.4580  138.9220  164.2383 C.ar    1  UNL1       -0.0064
     10 C         144.3418  140.0478  163.7894 C.ar    1  UNL1       -0.0029
     11 C         144.5248  140.3197  162.3257 C.ar    1  UNL1        0.0006
     12 C         143.8241  139.4658  161.3109 C.ar    1  UNL1        0.0117
     13 C         141.4512  135.4893  155.7408 C.ar    1  UNL1        0.0710
     14 C         142.4676  136.0344  156.7000 C.ar    1  UNL1        0.0165
     15 C         142.1498  137.4807  156.9397 C.ar    1  UNL1        0.0233
     16 C         140.9370  137.8294  156.1287 C.ar    1  UNL1        0.0373
     17 S         140.5053  136.5987  155.3878 S.2     1  UNL1       -0.0780
     18 C         141.3315  132.6747  154.7096 C.1     1  UNL1       -0.0388
     19 C         141.3914  134.0820  155.2252 C.1     1  UNL1       -0.0543
     20 C         141.2716  131.2673  154.1940 C.3     1  UNL1        0.2814
     21 O         142.3922  130.3136  154.4852 O.3     1  UNL1       -0.4612
     22 C         143.2879  130.5467  155.6656 C.ar    1  UNL1        0.1400
     23 C         144.3526  131.6014  155.6025 C.ar    1  UNL1        0.0369
     24 C         145.2482  131.8346  156.7830 C.ar    1  UNL1        0.0031
     25 C         145.0792  131.0130  158.0265 C.ar    1  UNL1        0.0002
     26 C         144.0144  129.9583  158.0897 C.ar    1  UNL1        0.0031
     27 C         143.1188  129.7251  156.9092 C.ar    1  UNL1        0.0369
     28 C         143.2750  138.6501  165.7021 C.3     1  UNL1        0.0998
     29 N         142.0976  139.2272  166.4306 N.3     1  UNL1       -0.2588
     30 C         140.7043  139.3582  165.8906 C.3     1  UNL1        0.0849
     31 C         139.8524  139.9865  166.9533 C.3     1  UNL1        0.0762
     32 S         140.7191  140.2439  168.1502 S.3     1  UNL1       -0.1212
     33 C         142.1067  139.7746  167.8271 C.3     1  UNL1        0.1316
@<TRIPOS>BOND
     1    18    19    3
     2    19    13    1
     3    13    14   ar
     4    14    15   ar
     5    15     1    1
     6     1     2    2
     7     2     3    1
     8     3     4    2
     9     4     5    1
    10     5     6    1
    11     6     7    1
    12     7     8   ar
    13     8     9   ar
    14     9    28    1
    15    28    29    1
    16    29    30    1
    17    30    31    1
    18    31    32    1
    19    32    33    1
    20     9    10   ar
    21    10    11   ar
    22    11    12   ar
    23    15    16   ar
    24    16    17   ar
    25    18    20    1
    26    20    21    1
    27    21    22    1
    28    22    23   ar
    29    23    24   ar
    30    24    25   ar
    31    25    26   ar
    32    26    27   ar
    33    17    13   ar
    34    27    22   ar
    35     5     1    1
    36    12     7   ar
    37    12     4    1
    38    33    29    1
@<TRIPOS>MOLECULE
*****
 33 38 0 0 0
SMALL
GASTEIGER

@<TRIPOS>ATOM
      1 C         142.0887  137.0521  157.0198 C.2     1  UNL1        0.0866
      2 N         140.8820  137.2992  156.1637 N.2     1  UNL1       -0.1523
      3 N         140.6973  136.1098  155.2685 N.2     1  UNL1       -0.1523
      4 C         141.7899  135.1276  155.5714 C.2     1  UNL1        0.0858
      5 C         142.6497  135.7100  156.6538 C.3     1  UNL1        0.0883
      6 C         143.7422  134.7278  156.9566 C.3     1  UNL1        0.0384
      7 C         143.5576  133.5384  156.0615 C.ar    1  UNL1       -0.0205
      8 C         144.3322  132.2623  155.9154 C.ar    1  UNL1       -0.0071
      9 C         143.9003  131.2333  154.9131 C.ar    1  UNL1       -0.0064
     10 C         142.6936  131.4805  154.0570 C.ar    1  UNL1       -0.0029
     11 C         141.9190  132.7565  154.2031 C.ar    1  UNL1        0.0006
     12 C         142.3509  133.7855  155.2054 C.ar    1  UNL1        0.0117
     13 C         143.4070  138.8815  160.1791 C.ar    1  UNL1        0.0710
     14 C         142.8377  137.6647  159.5115 C.ar    1  UNL1        0.0165
     15 C         142.6379  137.9835  158.0594 C.ar    1  UNL1        0.0233
     16 C         143.0836  139.3972  157.8296 C.ar    1  UNL1        0.0373
     17 S         143.5589  139.9521  159.1396 S.2     1  UNL1       -0.0780
     18 C         144.1170  139.1298  163.0833 C.1     1  UNL1       -0.0388
     19 C         143.7620  139.0056  161.6312 C.1     1  UNL1       -0.0543
     20 C         144.4720  139.2540  164.5354 C.3     1  UNL1        0.2814
     21 O         143.6768  138.5114  165.5680 O.3     1  UNL1       -0.4612
     22 C         142.1779  138.5587  165.5372 C.ar    1  UNL1        0.1400
     23 C         141.4112  137.5368  164.7512 C.ar    1  UNL1        0.0369
     24 C         139.9123  137.5841  164.7204 C.ar    1  UNL1        0.0031
     25 C         139.1800  138.6534  165.4757 C.ar    1  UNL1        0.0002
     26 C         139.9466  139.6754  166.2618 C.ar    1  UNL1        0.0031
     27 C         141.4456  139.6280  166.2925 C.ar    1  UNL1        0.0369
     28 C         144.6750  129.9572  154.7669 C.3     1  UNL1        0.0998
     29 N         144.3969  128.8020  155.6825 N.3     1  UNL1       -0.2588
     30 C         145.2026  127.5404  155.7800 C.3     1  UNL1        0.0849
     31 C         144.5680  126.6643  156.8190 C.3     1  UNL1        0.0762
     32 S         143.3701  127.3843  157.3637 S.3     1  UNL1       -0.1212
     33 C         143.2644  128.7054  156.6613 C.3     1  UNL1        0.1316
@<TRIPOS>BOND
     1    18    19    3
     2    19    13    1
     3    13    14   ar
     4    14    15   ar
     5    15     1    1
     6     1     2    2
     7     2     3    1
     8     3     4    2
     9     4     5    1
    10     5     6    1
    11     6     7    1
    12     7     8   ar
    13     8     9   ar
    14     9    28    1
    15    28    29    1
    16    29    30    1
    17    30    31    1
    18    31    32    1
    19    32    33    1
    20     9    10   ar
    21    10    11   ar
    22    11    12   ar
    23    15    16   ar
    24    16    17   ar
    25    18    20    1
    26    20    21    1
    27    21    22    1
    28    22    23   ar
    29    23    24   ar
    30    24    25   ar
    31    25    26   ar
    32    26    27   ar
    33    17    13   ar
    34    27    22   ar
    35     5     1    1
    36    12     7   ar
    37    12     4    1
    38    33    29    1
