@<TRIPOS>MOLECULE
*****
 30 33 0 0 0
SMALL
GASTEIGER

@<TRIPOS>ATOM
      1 N         140.3037  145.4384  160.0962 N.ar    1  UNL1       -0.1813
      2 N         139.5649  146.6080  160.6760 N.ar    1  UNL1       -0.0576
      3 N         139.1440  146.2457  162.0695 N.ar    1  UNL1       -0.1315
      4 C         139.6227  144.8523  162.3508 C.ar    1  UNL1        0.1138
      5 C         140.3395  144.3533  161.1313 C.ar    1  UNL1        0.0837
      6 C         140.9321  142.9754  161.1209 C.3     1  UNL1        0.0688
      7 C         140.8079  142.0964  162.3300 C.3     1  UNL1        0.1004
      8 N         140.0912  142.5953  163.5496 N.am    1  UNL1       -0.2719
      9 C         139.9670  141.7164  164.7587 C.2     1  UNL1        0.2501
     10 O         139.2503  142.2153  165.9782 O.2     1  UNL1       -0.2699
     11 C         139.4986  143.9733  163.5599 C.3     1  UNL1        0.1189
     12 C         138.7818  144.4723  164.7795 C.3     1  UNL1        0.0282
     13 C         140.2032  146.7522  155.0699 C.3     1  UNL1        0.0523
     14 C         140.8516  146.0233  156.2094 C.ar    1  UNL1        0.0640
     15 C         142.0982  145.2226  155.9751 C.ar    1  UNL1        0.0355
     16 C         142.7466  144.4938  157.1145 C.ar    1  UNL1        0.1033
     17 N         142.1484  144.5657  158.4882 N.ar    1  UNL1       -0.2084
     18 C         140.9018  145.3665  158.7225 C.ar    1  UNL1        0.2538
     19 N         140.2534  146.0953  157.5831 N.ar    1  UNL1       -0.2143
     20 C         140.5596  140.3385  164.7482 C.ar    1  UNL1        0.0641
     21 C         139.7234  139.1655  164.3300 C.ar    1  UNL1        0.0054
     22 C         140.3161  137.7876  164.3195 C.ar    1  UNL1        0.0001
     23 C         141.7449  137.5826  164.7274 C.ar    1  UNL1        0.0047
     24 C         142.5811  138.7556  165.1457 C.ar    1  UNL1        0.0821
     25 C         141.9885  140.1335  165.1561 C.ar    1  UNL1        0.0659
     26 CL        142.8248  141.3064  165.5744 Cl      1  UNL1       -0.0822
     27 C         144.0101  138.5505  165.5535 C.3     1  UNL1        0.4194
     28 F         145.4389  138.3455  165.9613 F       1  UNL1       -0.1658
     29 F         143.5608  138.1555  166.9290 F       1  UNL1       -0.1658
     30 F         144.4593  138.9455  164.1780 F       1  UNL1       -0.1658
@<TRIPOS>BOND
     1    13    14    1
     2    14    15   ar
     3    15    16   ar
     4    16    17   ar
     5    17    18   ar
     6    18     1    1
     7     1     2   ar
     8     2     3   ar
     9     3     4   ar
    10     4     5   ar
    11     5     6    1
    12     6     7    1
    13     7     8    1
    14     8     9   am
    15     9    10    2
    16     9    20    1
    17    20    21   ar
    18    21    22   ar
    19    22    23   ar
    20    23    24   ar
    21    24    27    1
    22    27    28    1
    23    27    29    1
    24    27    30    1
    25    24    25   ar
    26    25    26    1
    27     8    11    1
    28    11    12    1
    29    18    19   ar
    30    19    14   ar
    31     5     1   ar
    32    25    20   ar
    33    11     4    1
@<TRIPOS>MOLECULE
*****
 30 33 0 0 0
SMALL
GASTEIGER

@<TRIPOS>ATOM
      1 N         142.4826  143.3884  159.2669 N.ar    1  UNL1       -0.1813
      2 N         142.2467  144.8325  158.9369 N.ar    1  UNL1       -0.0576
      3 N         141.3604  145.4120  159.9992 N.ar    1  UNL1       -0.1315
      4 C         141.0485  144.3260  160.9859 C.ar    1  UNL1        0.1138
      5 C         141.7420  143.0754  160.5332 C.ar    1  UNL1        0.0837
      6 C         141.6096  141.8131  161.3327 C.3     1  UNL1        0.0688
      7 C         140.7837  141.8015  162.5848 C.3     1  UNL1        0.1004
      8 N         140.0901  143.0521  163.0374 N.am    1  UNL1       -0.2719
      9 C         139.2642  143.0405  164.2894 C.2     1  UNL1        0.2501
     10 O         138.5706  144.2911  164.7420 O.2     1  UNL1       -0.2699
     11 C         140.2225  144.3144  162.2379 C.3     1  UNL1        0.1189
     12 C         139.5290  145.5651  162.6905 C.3     1  UNL1        0.0282
     13 C         146.8299  142.3040  156.6355 C.3     1  UNL1        0.0523
     14 C         145.4868  141.8840  157.1547 C.ar    1  UNL1        0.0640
     15 C         144.9743  140.5018  156.8775 C.ar    1  UNL1        0.0355
     16 C         143.6312  140.0818  157.3968 C.ar    1  UNL1        0.1033
     17 N         142.8007  141.0441  158.1933 N.ar    1  UNL1       -0.2084
     18 C         143.3132  142.4262  158.4705 C.ar    1  UNL1        0.2538
     19 N         144.6563  142.8463  157.9512 N.ar    1  UNL1       -0.2143
     20 C         139.1318  141.7782  165.0888 C.ar    1  UNL1        0.0641
     21 C         138.2007  140.6949  164.6313 C.ar    1  UNL1        0.0054
     22 C         138.0683  139.4325  165.4308 C.ar    1  UNL1        0.0001
     23 C         138.8670  139.2537  166.6877 C.ar    1  UNL1        0.0047
     24 C         139.7981  140.3370  167.1453 C.ar    1  UNL1        0.0821
     25 C         139.9305  141.5993  166.3459 C.ar    1  UNL1        0.0659
     26 CL        140.8616  142.6827  166.8034 Cl      1  UNL1       -0.0822
     27 C         140.5968  140.1581  168.4023 C.3     1  UNL1        0.4194
     28 F         141.3955  139.9792  169.6593 F       1  UNL1       -0.1658
     29 F         141.7246  139.5757  167.6029 F       1  UNL1       -0.1658
     30 F         139.4691  140.7404  169.2017 F       1  UNL1       -0.1658
@<TRIPOS>BOND
     1    13    14    1
     2    14    15   ar
     3    15    16   ar
     4    16    17   ar
     5    17    18   ar
     6    18     1    1
     7     1     2   ar
     8     2     3   ar
     9     3     4   ar
    10     4     5   ar
    11     5     6    1
    12     6     7    1
    13     7     8    1
    14     8     9   am
    15     9    10    2
    16     9    20    1
    17    20    21   ar
    18    21    22   ar
    19    22    23   ar
    20    23    24   ar
    21    24    27    1
    22    27    28    1
    23    27    29    1
    24    27    30    1
    25    24    25   ar
    26    25    26    1
    27     8    11    1
    28    11    12    1
    29    18    19   ar
    30    19    14   ar
    31     5     1   ar
    32    25    20   ar
    33    11     4    1
@<TRIPOS>MOLECULE
*****
 30 33 0 0 0
SMALL
GASTEIGER

@<TRIPOS>ATOM
      1 N         142.7671  143.4539  158.9379 N.ar    1  UNL1       -0.1813
      2 N         142.2935  144.8073  158.4975 N.ar    1  UNL1       -0.0576
      3 N         141.5199  145.4182  159.6282 N.ar    1  UNL1       -0.1315
      4 C         141.5154  144.4423  160.7673 C.ar    1  UNL1        0.1138
      5 C         142.2862  143.2283  160.3407 C.ar    1  UNL1        0.0837
      6 C         142.4507  142.0743  161.2847 C.3     1  UNL1        0.0688
      7 C         141.8443  142.1342  162.6554 C.3     1  UNL1        0.1004
      8 N         141.0734  143.3483  163.0820 N.am    1  UNL1       -0.2719
      9 C         140.4671  143.4083  164.4527 C.2     1  UNL1        0.2501
     10 O         139.6962  144.6223  164.8793 O.2     1  UNL1       -0.2699
     11 C         140.9090  144.5023  162.1380 C.3     1  UNL1        0.1189
     12 C         140.1382  145.7163  162.5646 C.3     1  UNL1        0.0282
     13 C         147.1729  142.2690  156.4509 C.3     1  UNL1        0.0523
     14 C         145.7819  141.9020  156.8757 C.ar    1  UNL1        0.0640
     15 C         145.2029  140.5755  156.4818 C.ar    1  UNL1        0.0355
     16 C         143.8119  140.2085  156.9066 C.ar    1  UNL1        0.1033
     17 N         143.0000  141.1680  157.7253 N.ar    1  UNL1       -0.2084
     18 C         143.5790  142.4945  158.1192 C.ar    1  UNL1        0.2538
     19 N         144.9700  142.8615  157.6944 N.ar    1  UNL1       -0.2143
     20 C         140.6315  142.2542  165.3966 C.ar    1  UNL1        0.0641
     21 C         141.9126  142.0849  166.1583 C.ar    1  UNL1        0.0054
     22 C         142.0770  140.9308  167.1023 C.ar    1  UNL1        0.0001
     23 C         140.9603  139.9461  167.2847 C.ar    1  UNL1        0.0047
     24 C         139.6792  140.1154  166.5231 C.ar    1  UNL1        0.0821
     25 C         139.5147  141.2695  165.5791 C.ar    1  UNL1        0.0659
     26 CL        138.2336  141.4388  164.8175 Cl      1  UNL1       -0.0822
     27 C         138.5624  139.1307  166.7055 C.3     1  UNL1        0.4194
     28 F         137.4458  138.1459  166.8878 F       1  UNL1       -0.1658
     29 F         138.3556  139.6247  168.1065 F       1  UNL1       -0.1658
     30 F         138.7693  138.6366  165.3044 F       1  UNL1       -0.1658
@<TRIPOS>BOND
     1    13    14    1
     2    14    15   ar
     3    15    16   ar
     4    16    17   ar
     5    17    18   ar
     6    18     1    1
     7     1     2   ar
     8     2     3   ar
     9     3     4   ar
    10     4     5   ar
    11     5     6    1
    12     6     7    1
    13     7     8    1
    14     8     9   am
    15     9    10    2
    16     9    20    1
    17    20    21   ar
    18    21    22   ar
    19    22    23   ar
    20    23    24   ar
    21    24    27    1
    22    27    28    1
    23    27    29    1
    24    27    30    1
    25    24    25   ar
    26    25    26    1
    27     8    11    1
    28    11    12    1
    29    18    19   ar
    30    19    14   ar
    31     5     1   ar
    32    25    20   ar
    33    11     4    1
@<TRIPOS>MOLECULE
*****
 30 33 0 0 0
SMALL
GASTEIGER

@<TRIPOS>ATOM
      1 N         139.2401  142.0166  159.1041 N.ar    1  UNL1       -0.1813
      2 N         138.1174  141.2950  158.4195 N.ar    1  UNL1       -0.0576
      3 N         137.7314  140.1229  159.2723 N.ar    1  UNL1       -0.1315
      4 C         138.6157  140.1201  160.4840 C.ar    1  UNL1        0.1138
      5 C         139.5481  141.2904  160.3800 C.ar    1  UNL1        0.0837
      6 C         140.5571  141.5437  161.4606 C.3     1  UNL1        0.0688
      7 C         140.6338  140.6267  162.6452 C.3     1  UNL1        0.1004
      8 N         139.7013  139.4563  162.7491 N.am    1  UNL1       -0.2719
      9 C         139.7779  138.5392  163.9336 C.2     1  UNL1        0.2501
     10 O         138.8455  137.3688  164.0375 O.2     1  UNL1       -0.2699
     11 C         138.6923  139.2030  161.6684 C.3     1  UNL1        0.1189
     12 C         137.7598  138.0326  161.7724 C.3     1  UNL1        0.0282
     13 C         142.2218  144.3722  155.5600 C.3     1  UNL1        0.0523
     14 C         141.4241  144.4259  156.8292 C.ar    1  UNL1        0.0640
     15 C         141.3195  145.7112  157.5954 C.ar    1  UNL1        0.0355
     16 C         140.5218  145.7650  158.8645 C.ar    1  UNL1        0.1033
     17 N         139.8286  144.5334  159.3674 N.ar    1  UNL1       -0.2084
     18 C         139.9332  143.2481  158.6012 C.ar    1  UNL1        0.2538
     19 N         140.7310  143.1943  157.3321 N.ar    1  UNL1       -0.2143
     20 C         140.7869  138.7925  165.0142 C.ar    1  UNL1        0.0641
     21 C         142.1556  138.1862  164.9194 C.ar    1  UNL1        0.0054
     22 C         143.1647  138.4395  166.0000 C.ar    1  UNL1        0.0001
     23 C         142.8050  139.2992  167.1754 C.ar    1  UNL1        0.0047
     24 C         141.4363  139.9055  167.2702 C.ar    1  UNL1        0.0821
     25 C         140.4273  139.6522  166.1896 C.ar    1  UNL1        0.0659
     26 CL        139.0586  140.2586  166.2844 Cl      1  UNL1       -0.0822
     27 C         141.0766  140.7652  168.4457 C.3     1  UNL1        0.4194
     28 F         140.7170  141.6248  169.6211 F       1  UNL1       -0.1658
     29 F         141.4450  141.9903  167.6625 F       1  UNL1       -0.1658
     30 F         140.7082  139.5402  169.2289 F       1  UNL1       -0.1658
@<TRIPOS>BOND
     1    13    14    1
     2    14    15   ar
     3    15    16   ar
     4    16    17   ar
     5    17    18   ar
     6    18     1    1
     7     1     2   ar
     8     2     3   ar
     9     3     4   ar
    10     4     5   ar
    11     5     6    1
    12     6     7    1
    13     7     8    1
    14     8     9   am
    15     9    10    2
    16     9    20    1
    17    20    21   ar
    18    21    22   ar
    19    22    23   ar
    20    23    24   ar
    21    24    27    1
    22    27    28    1
    23    27    29    1
    24    27    30    1
    25    24    25   ar
    26    25    26    1
    27     8    11    1
    28    11    12    1
    29    18    19   ar
    30    19    14   ar
    31     5     1   ar
    32    25    20   ar
    33    11     4    1
@<TRIPOS>MOLECULE
*****
 30 33 0 0 0
SMALL
GASTEIGER

@<TRIPOS>ATOM
      1 N         142.5977  141.6709  160.6291 N.ar    1  UNL1       -0.1813
      2 N         143.8002  140.9161  160.1452 N.ar    1  UNL1       -0.0576
      3 N         144.3617  140.1467  161.3040 N.ar    1  UNL1       -0.1315
      4 C         143.5062  140.4260  162.5041 C.ar    1  UNL1        0.1138
      5 C         142.4160  141.3680  162.0870 C.ar    1  UNL1        0.0837
      6 C         141.3986  141.8283  163.0885 C.3     1  UNL1        0.0688
      7 C         141.4715  141.3466  164.5072 C.3     1  UNL1        0.1004
      8 N         142.5617  140.4046  164.9244 N.am    1  UNL1       -0.2719
      9 C         142.6347  139.9229  166.3430 C.2     1  UNL1        0.2501
     10 O         143.7249  138.9809  166.7601 O.2     1  UNL1       -0.2699
     11 C         143.5791  139.9443  163.9227 C.3     1  UNL1        0.1189
     12 C         144.6694  139.0023  164.3399 C.3     1  UNL1        0.0282
     13 C         142.0523  145.8562  157.5984 C.3     1  UNL1        0.0523
     14 C         141.4565  144.6632  158.2853 C.ar    1  UNL1        0.0640
     15 C         139.9923  144.3700  158.1437 C.ar    1  UNL1        0.0355
     16 C         139.3965  143.1770  158.8306 C.ar    1  UNL1        0.1033
     17 N         140.2650  142.2773  159.6591 N.ar    1  UNL1       -0.2084
     18 C         141.7292  142.5706  159.8007 C.ar    1  UNL1        0.2538
     19 N         142.3250  143.7636  159.1138 N.ar    1  UNL1       -0.2143
     20 C         141.6173  140.3832  167.3445 C.ar    1  UNL1        0.0641
     21 C         140.4128  139.5372  167.6331 C.ar    1  UNL1        0.0054
     22 C         139.3954  139.9976  168.6346 C.ar    1  UNL1        0.0001
     23 C         139.5826  141.3039  169.3476 C.ar    1  UNL1        0.0047
     24 C         140.7872  142.1499  169.0591 C.ar    1  UNL1        0.0821
     25 C         141.8045  141.6896  168.0576 C.ar    1  UNL1        0.0659
     26 CL        143.0091  142.5357  167.7691 Cl      1  UNL1       -0.0822
     27 C         140.9744  143.4563  169.7722 C.3     1  UNL1        0.4194
     28 F         141.1616  144.7626  170.4852 F       1  UNL1       -0.1658
     29 F         140.0371  144.1180  168.8060 F       1  UNL1       -0.1658
     30 F         141.9116  142.7946  170.7384 F       1  UNL1       -0.1658
@<TRIPOS>BOND
     1    13    14    1
     2    14    15   ar
     3    15    16   ar
     4    16    17   ar
     5    17    18   ar
     6    18     1    1
     7     1     2   ar
     8     2     3   ar
     9     3     4   ar
    10     4     5   ar
    11     5     6    1
    12     6     7    1
    13     7     8    1
    14     8     9   am
    15     9    10    2
    16     9    20    1
    17    20    21   ar
    18    21    22   ar
    19    22    23   ar
    20    23    24   ar
    21    24    27    1
    22    27    28    1
    23    27    29    1
    24    27    30    1
    25    24    25   ar
    26    25    26    1
    27     8    11    1
    28    11    12    1
    29    18    19   ar
    30    19    14   ar
    31     5     1   ar
    32    25    20   ar
    33    11     4    1
@<TRIPOS>MOLECULE
*****
 30 33 0 0 0
SMALL
GASTEIGER

@<TRIPOS>ATOM
      1 N         140.7492  138.0442  156.8180 N.ar    1  UNL1       -0.1813
      2 N         142.1599  137.7135  156.4297 N.ar    1  UNL1       -0.0576
      3 N         142.9903  137.6872  157.6786 N.ar    1  UNL1       -0.1315
      4 C         142.0929  138.0016  158.8387 C.ar    1  UNL1        0.1138
      5 C         140.7078  138.2222  158.3068 C.ar    1  UNL1        0.0837
      6 C         139.5879  138.5568  159.2469 C.3     1  UNL1        0.0688
      7 C         139.8529  138.6706  160.7189 C.3     1  UNL1        0.1004
      8 N         141.2380  138.4500  161.2508 N.am    1  UNL1       -0.2719
      9 C         141.5031  138.5638  162.7228 C.2     1  UNL1        0.2501
     10 O         142.8881  138.3432  163.2547 O.2     1  UNL1       -0.2699
     11 C         142.3580  138.1154  160.3107 C.3     1  UNL1        0.1189
     12 C         143.7430  137.8948  160.8426 C.3     1  UNL1        0.0282
     13 C         136.5260  140.6145  155.2188 C.3     1  UNL1        0.0523
     14 C         137.4728  139.4592  155.0822 C.ar    1  UNL1        0.0640
     15 C         137.2549  138.4338  154.0093 C.ar    1  UNL1        0.0355
     16 C         138.2018  137.2785  153.8727 C.ar    1  UNL1        0.1033
     17 N         139.3666  137.1487  154.8090 N.ar    1  UNL1       -0.2084
     18 C         139.5845  138.1741  155.8818 C.ar    1  UNL1        0.2538
     19 N         138.6376  139.3294  156.0184 N.ar    1  UNL1       -0.2143
     20 C         140.3831  138.8984  163.6629 C.ar    1  UNL1        0.0641
     21 C         139.7727  137.8249  164.5144 C.ar    1  UNL1        0.0054
     22 C         138.6527  138.1595  165.4545 C.ar    1  UNL1        0.0001
     23 C         138.1431  139.5675  165.5430 C.ar    1  UNL1        0.0047
     24 C         138.7535  140.6409  164.6915 C.ar    1  UNL1        0.0821
     25 C         139.8735  140.3064  163.7514 C.ar    1  UNL1        0.0659
     26 CL        140.4839  141.3799  162.8999 Cl      1  UNL1       -0.0822
     27 C         138.2439  142.0490  164.7800 C.3     1  UNL1        0.4194
     28 F         137.7344  143.4570  164.8686 F       1  UNL1       -0.1658
     29 F         137.2250  141.7468  163.7215 F       1  UNL1       -0.1658
     30 F         139.2628  142.3511  165.8385 F       1  UNL1       -0.1658
@<TRIPOS>BOND
     1    13    14    1
     2    14    15   ar
     3    15    16   ar
     4    16    17   ar
     5    17    18   ar
     6    18     1    1
     7     1     2   ar
     8     2     3   ar
     9     3     4   ar
    10     4     5   ar
    11     5     6    1
    12     6     7    1
    13     7     8    1
    14     8     9   am
    15     9    10    2
    16     9    20    1
    17    20    21   ar
    18    21    22   ar
    19    22    23   ar
    20    23    24   ar
    21    24    27    1
    22    27    28    1
    23    27    29    1
    24    27    30    1
    25    24    25   ar
    26    25    26    1
    27     8    11    1
    28    11    12    1
    29    18    19   ar
    30    19    14   ar
    31     5     1   ar
    32    25    20   ar
    33    11     4    1
@<TRIPOS>MOLECULE
*****
 30 33 0 0 0
SMALL
GASTEIGER

@<TRIPOS>ATOM
      1 N         139.5010  146.2272  155.9281 N.ar    1  UNL1       -0.1813
      2 N         139.2656  145.2166  154.8448 N.ar    1  UNL1       -0.0576
      3 N         139.6941  143.8752  155.3614 N.ar    1  UNL1       -0.1315
      4 C         140.1943  144.0566  156.7638 C.ar    1  UNL1        0.1138
      5 C         140.0750  145.5103  157.1141 C.ar    1  UNL1        0.0837
      6 C         140.5044  145.9933  158.4677 C.3     1  UNL1        0.0688
      7 C         141.0531  145.0227  159.4711 C.3     1  UNL1        0.1004
      8 N         141.1725  143.5690  159.1209 N.am    1  UNL1       -0.2719
      9 C         141.7212  142.5984  160.1242 C.2     1  UNL1        0.2501
     10 O         141.8405  141.1448  159.7740 O.2     1  UNL1       -0.2699
     11 C         140.7430  143.0860  157.7672 C.3     1  UNL1        0.1189
     12 C         140.8624  141.6324  157.4170 C.3     1  UNL1        0.0282
     13 C         139.6137  150.6840  153.2589 C.3     1  UNL1        0.0523
     14 C         139.2693  149.9251  154.5061 C.ar    1  UNL1        0.0640
     15 C         138.6370  150.6357  155.6659 C.ar    1  UNL1        0.0355
     16 C         138.2926  149.8768  156.9131 C.ar    1  UNL1        0.1033
     17 N         138.5806  148.4073  157.0004 N.ar    1  UNL1       -0.2084
     18 C         139.2130  147.6967  155.8407 C.ar    1  UNL1        0.2538
     19 N         139.5573  148.4555  154.5935 N.ar    1  UNL1       -0.2143
     20 C         142.1506  143.0815  161.4778 C.ar    1  UNL1        0.0641
     21 C         143.5696  143.5111  161.7055 C.ar    1  UNL1        0.0054
     22 C         143.9990  143.9942  163.0591 C.ar    1  UNL1        0.0001
     23 C         143.0094  144.0476  164.1851 C.ar    1  UNL1        0.0047
     24 C         141.5904  143.6180  163.9574 C.ar    1  UNL1        0.0821
     25 C         141.1610  143.1349  162.6038 C.ar    1  UNL1        0.0659
     26 CL        139.7420  142.7053  162.3762 Cl      1  UNL1       -0.0822
     27 C         140.6007  143.6714  165.0835 C.3     1  UNL1        0.4194
     28 F         139.6112  143.7247  166.2094 F       1  UNL1       -0.1658
     29 F         140.1452  145.0230  164.6191 F       1  UNL1       -0.1658
     30 F         141.0562  142.3198  165.5478 F       1  UNL1       -0.1658
@<TRIPOS>BOND
     1    13    14    1
     2    14    15   ar
     3    15    16   ar
     4    16    17   ar
     5    17    18   ar
     6    18     1    1
     7     1     2   ar
     8     2     3   ar
     9     3     4   ar
    10     4     5   ar
    11     5     6    1
    12     6     7    1
    13     7     8    1
    14     8     9   am
    15     9    10    2
    16     9    20    1
    17    20    21   ar
    18    21    22   ar
    19    22    23   ar
    20    23    24   ar
    21    24    27    1
    22    27    28    1
    23    27    29    1
    24    27    30    1
    25    24    25   ar
    26    25    26    1
    27     8    11    1
    28    11    12    1
    29    18    19   ar
    30    19    14   ar
    31     5     1   ar
    32    25    20   ar
    33    11     4    1
@<TRIPOS>MOLECULE
*****
 30 33 0 0 0
SMALL
GASTEIGER

@<TRIPOS>ATOM
      1 N         139.3763  140.1357  157.1596 N.ar    1  UNL1       -0.1813
      2 N         140.5237  139.5877  156.3639 N.ar    1  UNL1       -0.0576
      3 N         141.4672  138.9134  157.3153 N.ar    1  UNL1       -0.1315
      4 C         140.9030  139.0447  158.6989 C.ar    1  UNL1        0.1138
      5 C         139.6107  139.8001  158.6027 C.ar    1  UNL1        0.0837
      6 C         138.8143  140.0848  159.8415 C.3     1  UNL1        0.0688
      7 C         139.3103  139.6140  161.1767 C.3     1  UNL1        0.1004
      8 N         140.6026  138.8586  161.2728 N.am    1  UNL1       -0.2719
      9 C         141.0985  138.3878  162.6079 C.2     1  UNL1        0.2501
     10 O         142.3908  137.6323  162.7041 O.2     1  UNL1       -0.2699
     11 C         141.3989  138.5739  160.0339 C.3     1  UNL1        0.1189
     12 C         142.6912  137.8184  160.1301 C.3     1  UNL1        0.0282
     13 C         137.3962  144.4041  154.9550 C.3     1  UNL1        0.0523
     14 C         137.2107  143.0216  155.5067 C.ar    1  UNL1        0.0640
     15 C         135.8498  142.3908  155.5076 C.ar    1  UNL1        0.0355
     16 C         135.6644  141.0083  156.0592 C.ar    1  UNL1        0.1033
     17 N         136.8399  140.2567  156.6099 N.ar    1  UNL1       -0.2084
     18 C         138.2008  140.8875  156.6090 C.ar    1  UNL1        0.2538
     19 N         138.3863  142.2699  156.0573 N.ar    1  UNL1       -0.2143
     20 C         140.3022  138.6725  163.8467 C.ar    1  UNL1        0.0641
     21 C         139.2713  137.6900  164.3179 C.ar    1  UNL1        0.0054
     22 C         138.4750  137.9748  165.5569 C.ar    1  UNL1        0.0001
     23 C         138.7096  139.2419  166.3245 C.ar    1  UNL1        0.0047
     24 C         139.7404  140.2244  165.8532 C.ar    1  UNL1        0.0821
     25 C         140.5368  139.9397  164.6144 C.ar    1  UNL1        0.0659
     26 CL        141.5677  140.9221  164.1432 Cl      1  UNL1       -0.0822
     27 C         139.9750  141.4916  166.6209 C.3     1  UNL1        0.4194
     28 F         140.2095  142.7587  167.3885 F       1  UNL1       -0.1658
     29 F         140.8416  140.7439  167.5903 F       1  UNL1       -0.1658
     30 F         139.1083  142.2392  165.6515 F       1  UNL1       -0.1658
@<TRIPOS>BOND
     1    13    14    1
     2    14    15   ar
     3    15    16   ar
     4    16    17   ar
     5    17    18   ar
     6    18     1    1
     7     1     2   ar
     8     2     3   ar
     9     3     4   ar
    10     4     5   ar
    11     5     6    1
    12     6     7    1
    13     7     8    1
    14     8     9   am
    15     9    10    2
    16     9    20    1
    17    20    21   ar
    18    21    22   ar
    19    22    23   ar
    20    23    24   ar
    21    24    27    1
    22    27    28    1
    23    27    29    1
    24    27    30    1
    25    24    25   ar
    26    25    26    1
    27     8    11    1
    28    11    12    1
    29    18    19   ar
    30    19    14   ar
    31     5     1   ar
    32    25    20   ar
    33    11     4    1
@<TRIPOS>MOLECULE
*****
 30 33 0 0 0
SMALL
GASTEIGER

@<TRIPOS>ATOM
      1 N         139.8261  145.5361  155.1490 N.ar    1  UNL1       -0.1813
      2 N         139.7042  144.3583  154.2282 N.ar    1  UNL1       -0.0576
      3 N         139.7314  143.1125  155.0632 N.ar    1  UNL1       -0.1315
      4 C         139.8701  143.5203  156.5000 C.ar    1  UNL1        0.1138
      5 C         139.9287  145.0183  156.5531 C.ar    1  UNL1        0.0837
      6 C         140.0678  145.7171  157.8730 C.3     1  UNL1        0.0688
      7 C         140.1484  144.9181  159.1399 C.3     1  UNL1        0.1004
      8 N         140.0899  143.4201  159.0869 N.am    1  UNL1       -0.2719
      9 C         140.1704  142.6211  160.3537 C.2     1  UNL1        0.2501
     10 O         140.1119  141.1232  160.3007 O.2     1  UNL1       -0.2699
     11 C         139.9507  142.7213  157.7669 C.3     1  UNL1        0.1189
     12 C         139.8922  141.2234  157.7138 C.3     1  UNL1        0.0282
     13 C         138.3506  150.4561  155.9340 C.3     1  UNL1        0.0523
     14 C         139.1048  149.4386  155.1304 C.ar    1  UNL1        0.0640
     15 C         139.8755  149.8636  153.9158 C.ar    1  UNL1        0.0355
     16 C         140.6298  148.8461  153.1122 C.ar    1  UNL1        0.1033
     17 N         140.6133  147.4036  153.5234 N.ar    1  UNL1       -0.2084
     18 C         139.8426  146.9786  154.7380 C.ar    1  UNL1        0.2538
     19 N         139.0883  147.9961  155.5416 N.ar    1  UNL1       -0.2143
     20 C         140.3096  143.3199  161.6736 C.ar    1  UNL1        0.0641
     21 C         139.0951  143.8635  162.3662 C.ar    1  UNL1        0.0054
     22 C         139.2343  144.5624  163.6861 C.ar    1  UNL1        0.0001
     23 C         140.5879  144.7177  164.3135 C.ar    1  UNL1        0.0047
     24 C         141.8023  144.1742  163.6209 C.ar    1  UNL1        0.0821
     25 C         141.6632  143.4753  162.3010 C.ar    1  UNL1        0.0659
     26 CL        142.8777  142.9318  161.6085 Cl      1  UNL1       -0.0822
     27 C         143.1560  144.3295  164.2484 C.3     1  UNL1        0.4194
     28 F         144.5096  144.4849  164.8757 F       1  UNL1       -0.1658
     29 F         142.9218  143.0904  165.0606 F       1  UNL1       -0.1658
     30 F         143.3902  145.5686  163.4361 F       1  UNL1       -0.1658
@<TRIPOS>BOND
     1    13    14    1
     2    14    15   ar
     3    15    16   ar
     4    16    17   ar
     5    17    18   ar
     6    18     1    1
     7     1     2   ar
     8     2     3   ar
     9     3     4   ar
    10     4     5   ar
    11     5     6    1
    12     6     7    1
    13     7     8    1
    14     8     9   am
    15     9    10    2
    16     9    20    1
    17    20    21   ar
    18    21    22   ar
    19    22    23   ar
    20    23    24   ar
    21    24    27    1
    22    27    28    1
    23    27    29    1
    24    27    30    1
    25    24    25   ar
    26    25    26    1
    27     8    11    1
    28    11    12    1
    29    18    19   ar
    30    19    14   ar
    31     5     1   ar
    32    25    20   ar
    33    11     4    1
