@<TRIPOS>MOLECULE
*****
 24 27 0 0 0
SMALL
GASTEIGER

@<TRIPOS>ATOM
      1 N         140.3666  139.6534  166.5769 N.ar    1  UNL1       -0.3087
      2 C         141.6593  139.1759  165.9845 C.ar    1  UNL1        0.1493
      3 N         142.7097  139.2371  167.0536 N.ar    1  UNL1       -0.2284
      4 C         142.0662  139.7525  168.3067 C.ar    1  UNL1        0.0984
      5 C         142.6117  140.0207  169.6780 C.ar    1  UNL1        0.0206
      6 C         141.7092  140.5463  170.7546 C.ar    1  UNL1        0.0016
      7 C         140.2611  140.8035  170.4600 C.ar    1  UNL1        0.0016
      8 C         139.7155  140.5353  169.0887 C.ar    1  UNL1        0.0188
      9 C         140.6181  140.0098  168.0121 C.ar    1  UNL1        0.0789
     10 C         141.8654  138.7176  164.5712 C.3     1  UNL1        0.1869
     11 C         141.2310  137.4444  164.0955 C.3     1  UNL1        0.1064
     12 N         141.4371  136.9861  162.6822 N.3     1  UNL1       -0.2930
     13 C         142.2777  137.8010  161.7446 C.3     1  UNL1        0.1011
     14 C         142.9121  139.0742  162.2202 C.3     1  UNL1        0.1597
     15 O         142.7060  139.5325  163.6335 O.3     1  UNL1       -0.3458
     16 H         140.5120  136.9114  162.2590 H       1  UNL1        0.1234
     17 C         139.0531  139.7565  165.8600 C.3     1  UNL1        0.1340
     18 F         137.6831  144.7375  162.8084 F       1  UNL1       -0.2042
     19 C         138.0257  143.4923  163.5713 C.ar    1  UNL1        0.1401
     20 C         137.4026  142.1827  163.1881 C.ar    1  UNL1        0.0294
     21 C         137.7451  140.9375  163.9510 C.ar    1  UNL1       -0.0001
     22 C         138.7106  141.0017  165.0972 C.ar    1  UNL1        0.0006
     23 C         139.3337  142.3113  165.4804 C.ar    1  UNL1       -0.0001
     24 C         138.9912  143.5565  164.7174 C.ar    1  UNL1        0.0294
@<TRIPOS>BOND
     1    18    19    1
     2    19    20   ar
     3    20    21   ar
     4    21    22   ar
     5    22    17    1
     6    17     1    1
     7     1     2   ar
     8    10     2    1
     9    10    11    1
    10    11    12    1
    11    12    13    1
    12    13    14    1
    13    14    15    1
    14     2     3   ar
    15     3     4   ar
    16     4     5   ar
    17     5     6   ar
    18     6     7   ar
    19     7     8   ar
    20     8     9   ar
    21    22    23   ar
    22    23    24   ar
    23    24    19   ar
    24     9     1   ar
    25    15    10    1
    26     9     4   ar
    27    12    16    1
@<TRIPOS>MOLECULE
*****
 24 27 0 0 0
SMALL
GASTEIGER

@<TRIPOS>ATOM
      1 N         142.9969  140.1419  166.3634 N.ar    1  UNL1       -0.3087
      2 C         143.4492  141.4174  165.7164 C.ar    1  UNL1        0.1493
      3 N         143.3940  142.5051  166.7478 N.ar    1  UNL1       -0.2284
      4 C         142.9077  141.9019  168.0322 C.ar    1  UNL1        0.0984
      5 C         142.6566  142.4939  169.3873 C.ar    1  UNL1        0.0206
      6 C         142.1601  141.6253  170.5049 C.ar    1  UNL1        0.0016
      7 C         141.9147  140.1647  170.2673 C.ar    1  UNL1        0.0016
      8 C         142.1657  139.5727  168.9121 C.ar    1  UNL1        0.0188
      9 C         142.6622  140.4413  167.7946 C.ar    1  UNL1        0.0789
     10 C         143.8808  141.5771  164.2887 C.3     1  UNL1        0.1869
     11 C         145.3227  141.8345  163.9655 C.3     1  UNL1        0.1064
     12 N         145.7544  141.9942  162.5378 N.3     1  UNL1       -0.2930
     13 C         144.7441  141.8965  161.4334 C.3     1  UNL1        0.1011
     14 C         143.3021  141.6391  161.7567 C.3     1  UNL1        0.1597
     15 O         142.8705  141.4794  163.1844 O.3     1  UNL1       -0.3458
     16 H         146.4555  141.2750  162.3600 H       1  UNL1        0.1234
     17 C         142.8968  138.8021  165.6963 C.3     1  UNL1        0.1340
     18 F         138.0770  137.4500  162.3887 F       1  UNL1       -0.2042
     19 C         139.2820  137.7880  163.2155 C.ar    1  UNL1        0.1401
     20 C         139.1112  138.3112  164.6110 C.ar    1  UNL1        0.0294
     21 C         140.3162  138.6493  165.4378 C.ar    1  UNL1       -0.0001
     22 C         141.6920  138.4641  164.8694 C.ar    1  UNL1        0.0006
     23 C         141.8626  137.9409  163.4740 C.ar    1  UNL1       -0.0001
     24 C         140.6576  137.6029  162.6471 C.ar    1  UNL1        0.0294
@<TRIPOS>BOND
     1    18    19    1
     2    19    20   ar
     3    20    21   ar
     4    21    22   ar
     5    22    17    1
     6    17     1    1
     7     1     2   ar
     8    10     2    1
     9    10    11    1
    10    11    12    1
    11    12    13    1
    12    13    14    1
    13    14    15    1
    14     2     3   ar
    15     3     4   ar
    16     4     5   ar
    17     5     6   ar
    18     6     7   ar
    19     7     8   ar
    20     8     9   ar
    21    22    23   ar
    22    23    24   ar
    23    24    19   ar
    24     9     1   ar
    25    15    10    1
    26     9     4   ar
    27    12    16    1
@<TRIPOS>MOLECULE
*****
 24 27 0 0 0
SMALL
GASTEIGER

@<TRIPOS>ATOM
      1 N         140.6619  141.3256  166.5585 N.ar    1  UNL1       -0.3087
      2 C         141.7055  140.3363  166.1315 C.ar    1  UNL1        0.1493
      3 N         142.8244  140.3832  167.1293 N.ar    1  UNL1       -0.2284
      4 C         142.4724  141.4013  168.1731 C.ar    1  UNL1        0.0984
      5 C         143.1962  141.8733  169.3992 C.ar    1  UNL1        0.0206
      6 C         142.5835  142.9277  170.2725 C.ar    1  UNL1        0.0016
      7 C         141.2470  143.5102  169.9197 C.ar    1  UNL1        0.0016
      8 C         140.5232  143.0382  168.6936 C.ar    1  UNL1        0.0188
      9 C         141.1359  141.9838  167.8204 C.ar    1  UNL1        0.0789
     10 C         141.6414  139.4550  164.9194 C.3     1  UNL1        0.1869
     11 C         142.0135  140.0026  163.5734 C.3     1  UNL1        0.1064
     12 N         141.9494  139.1213  162.3613 N.3     1  UNL1       -0.2930
     13 C         141.5131  137.6924  162.4951 C.3     1  UNL1        0.1011
     14 C         141.1409  137.1449  163.8411 C.3     1  UNL1        0.1597
     15 O         141.2051  138.0262  165.0532 O.3     1  UNL1       -0.3458
     16 H         142.8862  139.1066  161.9581 H       1  UNL1        0.1234
     17 C         139.3710  141.6072  165.8485 C.3     1  UNL1        0.1340
     18 F         139.0121  146.1745  161.9741 F       1  UNL1       -0.2042
     19 C         139.1019  145.0327  162.9427 C.ar    1  UNL1        0.1401
     20 C         137.8830  144.2155  163.2537 C.ar    1  UNL1        0.0294
     21 C         137.9728  143.0737  164.2223 C.ar    1  UNL1       -0.0001
     22 C         139.2813  142.7490  164.8799 C.ar    1  UNL1        0.0006
     23 C         140.5001  143.5662  164.5689 C.ar    1  UNL1       -0.0001
     24 C         140.4103  144.7080  163.6003 C.ar    1  UNL1        0.0294
@<TRIPOS>BOND
     1    18    19    1
     2    19    20   ar
     3    20    21   ar
     4    21    22   ar
     5    22    17    1
     6    17     1    1
     7     1     2   ar
     8    10     2    1
     9    10    11    1
    10    11    12    1
    11    12    13    1
    12    13    14    1
    13    14    15    1
    14     2     3   ar
    15     3     4   ar
    16     4     5   ar
    17     5     6   ar
    18     6     7   ar
    19     7     8   ar
    20     8     9   ar
    21    22    23   ar
    22    23    24   ar
    23    24    19   ar
    24     9     1   ar
    25    15    10    1
    26     9     4   ar
    27    12    16    1
@<TRIPOS>MOLECULE
*****
 24 27 0 0 0
SMALL
GASTEIGER

@<TRIPOS>ATOM
      1 N         141.6610  141.1884  163.9901 N.ar    1  UNL1       -0.3087
      2 C         140.7160  141.6903  162.9390 C.ar    1  UNL1        0.1493
      3 N         141.0611  143.1212  162.6505 N.ar    1  UNL1       -0.2284
      4 C         142.2194  143.5038  163.5234 C.ar    1  UNL1        0.0984
      5 C         142.9844  144.7855  163.6712 C.ar    1  UNL1        0.0206
      6 C         144.1202  144.8727  164.6471 C.ar    1  UNL1        0.0016
      7 C         144.4911  143.6781  165.4750 C.ar    1  UNL1        0.0016
      8 C         143.7260  142.3964  165.3271 C.ar    1  UNL1        0.0188
      9 C         142.5902  142.3092  164.3513 C.ar    1  UNL1        0.0789
     10 C         139.6185  140.8999  162.2902 C.3     1  UNL1        0.1869
     11 C         138.1862  141.2927  162.5005 C.3     1  UNL1        0.1064
     12 N         137.0887  140.5024  161.8517 N.3     1  UNL1       -0.2930
     13 C         137.4235  139.3193  160.9926 C.3     1  UNL1        0.1011
     14 C         138.8558  138.9265  160.7823 C.3     1  UNL1        0.1597
     15 O         139.9533  139.7168  161.4311 O.3     1  UNL1       -0.3458
     16 H         136.5643  141.1524  161.2662 H       1  UNL1        0.1234
     17 C         141.6746  139.8081  164.5771 C.3     1  UNL1        0.1340
     18 F         136.8011  137.6819  167.3570 F       1  UNL1       -0.2042
     19 C         138.0195  138.2135  166.6620 C.ar    1  UNL1        0.1401
     20 C         138.5520  137.5175  165.4446 C.ar    1  UNL1        0.0294
     21 C         139.7704  138.0491  164.7496 C.ar    1  UNL1       -0.0001
     22 C         140.4563  139.2766  165.2720 C.ar    1  UNL1        0.0006
     23 C         139.9237  139.9725  166.4895 C.ar    1  UNL1       -0.0001
     24 C         138.7053  139.4409  167.1844 C.ar    1  UNL1        0.0294
@<TRIPOS>BOND
     1    18    19    1
     2    19    20   ar
     3    20    21   ar
     4    21    22   ar
     5    22    17    1
     6    17     1    1
     7     1     2   ar
     8    10     2    1
     9    10    11    1
    10    11    12    1
    11    12    13    1
    12    13    14    1
    13    14    15    1
    14     2     3   ar
    15     3     4   ar
    16     4     5   ar
    17     5     6   ar
    18     6     7   ar
    19     7     8   ar
    20     8     9   ar
    21    22    23   ar
    22    23    24   ar
    23    24    19   ar
    24     9     1   ar
    25    15    10    1
    26     9     4   ar
    27    12    16    1
@<TRIPOS>MOLECULE
*****
 24 27 0 0 0
SMALL
GASTEIGER

@<TRIPOS>ATOM
      1 N         140.8928  140.9159  164.9851 N.ar    1  UNL1       -0.3087
      2 C         141.6712  140.3361  163.8414 C.ar    1  UNL1        0.1493
      3 N         141.1754  138.9406  163.6035 N.ar    1  UNL1       -0.2284
      4 C         140.0906  138.6578  164.6001 C.ar    1  UNL1        0.0984
      5 C         139.2392  137.4465  164.8404 C.ar    1  UNL1        0.0206
      6 C         138.2132  137.4559  165.9345 C.ar    1  UNL1        0.0016
      7 C         138.0386  138.6767  166.7884 C.ar    1  UNL1        0.0016
      8 C         138.8899  139.8881  166.5482 C.ar    1  UNL1        0.0188
      9 C         139.9159  139.8786  165.4540 C.ar    1  UNL1        0.0789
     10 C         142.7551  141.0301  163.0710 C.3     1  UNL1        0.1869
     11 C         144.1843  140.6076  163.2408 C.3     1  UNL1        0.1064
     12 N         145.2682  141.3015  162.4704 N.3     1  UNL1       -0.2930
     13 C         144.9229  142.4180  161.5301 C.3     1  UNL1        0.1011
     14 C         143.4937  142.8406  161.3602 C.3     1  UNL1        0.1597
     15 O         142.4098  142.1466  162.1307 O.3     1  UNL1       -0.3458
     16 H         145.7405  140.5863  161.9174 H       1  UNL1        0.1234
     17 C         141.0616  142.2914  165.5591 C.3     1  UNL1        0.1340
     18 F         142.7690  142.9699  171.2709 F       1  UNL1       -0.2042
     19 C         142.3421  142.8003  169.8430 C.ar    1  UNL1        0.1401
     20 C         143.3276  142.3243  168.8171 C.ar    1  UNL1        0.0294
     21 C         142.9007  142.1547  167.3892 C.ar    1  UNL1       -0.0001
     22 C         141.4884  142.4610  166.9870 C.ar    1  UNL1        0.0006
     23 C         140.5030  142.9370  168.0129 C.ar    1  UNL1       -0.0001
     24 C         140.9299  143.1066  169.4409 C.ar    1  UNL1        0.0294
@<TRIPOS>BOND
     1    18    19    1
     2    19    20   ar
     3    20    21   ar
     4    21    22   ar
     5    22    17    1
     6    17     1    1
     7     1     2   ar
     8    10     2    1
     9    10    11    1
    10    11    12    1
    11    12    13    1
    12    13    14    1
    13    14    15    1
    14     2     3   ar
    15     3     4   ar
    16     4     5   ar
    17     5     6   ar
    18     6     7   ar
    19     7     8   ar
    20     8     9   ar
    21    22    23   ar
    22    23    24   ar
    23    24    19   ar
    24     9     1   ar
    25    15    10    1
    26     9     4   ar
    27    12    16    1
@<TRIPOS>MOLECULE
*****
 24 27 0 0 0
SMALL
GASTEIGER

@<TRIPOS>ATOM
      1 N         141.4391  141.7020  164.0698 N.ar    1  UNL1       -0.3087
      2 C         141.0333  140.8354  162.9147 C.ar    1  UNL1        0.1493
      3 N         139.6446  141.2282  162.5060 N.ar    1  UNL1       -0.2284
      4 C         139.1921  142.3375  163.4086 C.ar    1  UNL1        0.0984
      5 C         137.9134  143.1189  163.4752 C.ar    1  UNL1        0.0206
      6 C         137.7438  144.1930  164.5083 C.ar    1  UNL1        0.0016
      7 C         138.8529  144.4858  165.4748 C.ar    1  UNL1        0.0016
      8 C         140.1316  143.7045  165.4082 C.ar    1  UNL1        0.0188
      9 C         140.3012  142.6304  164.3751 C.ar    1  UNL1        0.0789
     10 C         141.8695  139.7641  162.2797 C.3     1  UNL1        0.1869
     11 C         141.4080  138.3372  162.3076 C.3     1  UNL1        0.1064
     12 N         142.2441  137.2659  161.6726 N.3     1  UNL1       -0.2930
     13 C         143.5418  137.6215  161.0098 C.3     1  UNL1        0.1011
     14 C         144.0034  139.0485  160.9818 C.3     1  UNL1        0.1597
     15 O         143.1672  140.1198  161.6168 O.3     1  UNL1       -0.3458
     16 H         141.6629  136.8210  160.9623 H       1  UNL1        0.1234
     17 C         142.7524  141.6495  164.7928 C.3     1  UNL1        0.1340
     18 F         142.9079  140.3007  170.6371 F       1  UNL1       -0.2042
     19 C         142.8690  140.6379  169.1760 C.ar    1  UNL1        0.1401
     20 C         143.1244  142.0452  168.7241 C.ar    1  UNL1        0.0294
     21 C         143.0855  142.3824  167.2630 C.ar    1  UNL1       -0.0001
     22 C         142.7912  141.3123  166.2538 C.ar    1  UNL1        0.0006
     23 C         142.5359  139.9050  166.7058 C.ar    1  UNL1       -0.0001
     24 C         142.5748  139.5678  168.1669 C.ar    1  UNL1        0.0294
@<TRIPOS>BOND
     1    18    19    1
     2    19    20   ar
     3    20    21   ar
     4    21    22   ar
     5    22    17    1
     6    17     1    1
     7     1     2   ar
     8    10     2    1
     9    10    11    1
    10    11    12    1
    11    12    13    1
    12    13    14    1
    13    14    15    1
    14     2     3   ar
    15     3     4   ar
    16     4     5   ar
    17     5     6   ar
    18     6     7   ar
    19     7     8   ar
    20     8     9   ar
    21    22    23   ar
    22    23    24   ar
    23    24    19   ar
    24     9     1   ar
    25    15    10    1
    26     9     4   ar
    27    12    16    1
@<TRIPOS>MOLECULE
*****
 24 27 0 0 0
SMALL
GASTEIGER

@<TRIPOS>ATOM
      1 N         142.6352  141.3131  166.6147 N.ar    1  UNL1       -0.3087
      2 C         142.8963  139.8846  166.2393 C.ar    1  UNL1        0.1493
      3 N         142.8501  139.0604  167.4917 N.ar    1  UNL1       -0.2284
      4 C         142.5604  139.9796  168.6412 C.ar    1  UNL1        0.0984
      5 C         142.4004  139.7286  170.1113 C.ar    1  UNL1        0.0206
      6 C         142.1076  140.8700  171.0394 C.ar    1  UNL1        0.0016
      7 C         141.9747  142.2623  170.4974 C.ar    1  UNL1        0.0016
      8 C         142.1347  142.5133  169.0272 C.ar    1  UNL1        0.0188
      9 C         142.4276  141.3719  168.0991 C.ar    1  UNL1        0.0789
     10 C         143.1578  139.3705  164.8546 C.3     1  UNL1        0.1869
     11 C         144.4800  139.6298  164.1955 C.3     1  UNL1        0.1064
     12 N         144.7414  139.1157  162.8108 N.3     1  UNL1       -0.2930
     13 C         143.6807  138.3422  162.0853 C.3     1  UNL1        0.1011
     14 C         142.3585  138.0828  162.7444 C.3     1  UNL1        0.1597
     15 O         142.0970  138.5969  164.1291 O.3     1  UNL1       -0.3458
     16 H         145.5589  138.5087  162.8716 H       1  UNL1        0.1234
     17 C         142.5896  142.4785  165.6713 C.3     1  UNL1        0.1340
     18 F         137.3258  144.3931  163.5203 F       1  UNL1       -0.2042
     19 C         138.6418  143.9144  164.0581 C.ar    1  UNL1        0.1401
     20 C         138.7130  142.6338  164.8358 C.ar    1  UNL1        0.0294
     21 C         140.0290  142.1551  165.3736 C.ar    1  UNL1       -0.0001
     22 C         141.2737  142.9571  165.1336 C.ar    1  UNL1        0.0006
     23 C         141.2024  144.2378  164.3558 C.ar    1  UNL1       -0.0001
     24 C         139.8864  144.7164  163.8181 C.ar    1  UNL1        0.0294
@<TRIPOS>BOND
     1    18    19    1
     2    19    20   ar
     3    20    21   ar
     4    21    22   ar
     5    22    17    1
     6    17     1    1
     7     1     2   ar
     8    10     2    1
     9    10    11    1
    10    11    12    1
    11    12    13    1
    12    13    14    1
    13    14    15    1
    14     2     3   ar
    15     3     4   ar
    16     4     5   ar
    17     5     6   ar
    18     6     7   ar
    19     7     8   ar
    20     8     9   ar
    21    22    23   ar
    22    23    24   ar
    23    24    19   ar
    24     9     1   ar
    25    15    10    1
    26     9     4   ar
    27    12    16    1
@<TRIPOS>MOLECULE
*****
 24 27 0 0 0
SMALL
GASTEIGER

@<TRIPOS>ATOM
      1 N         139.5840  140.8440  165.2062 N.ar    1  UNL1       -0.3087
      2 C         140.0599  139.6633  165.9996 C.ar    1  UNL1        0.1493
      3 N         139.7242  138.4211  165.2287 N.ar    1  UNL1       -0.2284
      4 C         139.0409  138.8342  163.9588 C.ar    1  UNL1        0.0984
      5 C         138.4863  138.0402  162.8134 C.ar    1  UNL1        0.0206
      6 C         137.8452  138.7437  161.6541 C.ar    1  UNL1        0.0016
      7 C         137.7586  140.2411  161.6402 C.ar    1  UNL1        0.0016
      8 C         138.3131  141.0351  162.7857 C.ar    1  UNL1        0.0188
      9 C         138.9542  140.3316  163.9450 C.ar    1  UNL1        0.0789
     10 C         140.7503  139.7155  167.3303 C.3     1  UNL1        0.1869
     11 C         142.2371  139.5347  167.4115 C.3     1  UNL1        0.1064
     12 N         142.9274  139.5869  168.7422 N.3     1  UNL1       -0.2930
     13 C         142.1309  139.8200  169.9916 C.3     1  UNL1        0.1011
     14 C         140.6441  140.0008  169.9105 C.3     1  UNL1        0.1597
     15 O         139.9538  139.9485  168.5798 O.3     1  UNL1       -0.3458
     16 H         143.6158  140.3376  168.6875 H       1  UNL1        0.1234
     17 C         139.7150  142.2843  165.6043 C.3     1  UNL1        0.1340
     18 F         144.1097  145.6493  163.2884 F       1  UNL1       -0.2042
     19 C         143.0110  144.8081  163.8674 C.ar    1  UNL1        0.1401
     20 C         143.3443  143.5578  164.6263 C.ar    1  UNL1        0.0294
     21 C         142.2456  142.7166  165.2052 C.ar    1  UNL1       -0.0001
     22 C         140.8136  143.1255  165.0253 C.ar    1  UNL1        0.0006
     23 C         140.4804  144.3758  164.2664 C.ar    1  UNL1       -0.0001
     24 C         141.5791  145.2170  163.6875 C.ar    1  UNL1        0.0294
@<TRIPOS>BOND
     1    18    19    1
     2    19    20   ar
     3    20    21   ar
     4    21    22   ar
     5    22    17    1
     6    17     1    1
     7     1     2   ar
     8    10     2    1
     9    10    11    1
    10    11    12    1
    11    12    13    1
    12    13    14    1
    13    14    15    1
    14     2     3   ar
    15     3     4   ar
    16     4     5   ar
    17     5     6   ar
    18     6     7   ar
    19     7     8   ar
    20     8     9   ar
    21    22    23   ar
    22    23    24   ar
    23    24    19   ar
    24     9     1   ar
    25    15    10    1
    26     9     4   ar
    27    12    16    1
@<TRIPOS>MOLECULE
*****
 24 27 0 0 0
SMALL
GASTEIGER

@<TRIPOS>ATOM
      1 N         140.1324  141.4203  166.2630 N.ar    1  UNL1       -0.3087
      2 C         139.2688  140.2175  166.0230 C.ar    1  UNL1        0.1493
      3 N         138.9396  139.6103  167.3545 N.ar    1  UNL1       -0.2284
      4 C         139.5997  140.4377  168.4173 C.ar    1  UNL1        0.0984
      5 C         139.6247  140.3170  169.9122 C.ar    1  UNL1        0.0206
      6 C         140.3869  141.3150  170.7325 C.ar    1  UNL1        0.0016
      7 C         141.1241  142.4337  170.0580 C.ar    1  UNL1        0.0016
      8 C         141.0991  142.5544  168.5631 C.ar    1  UNL1        0.0188
      9 C         140.3369  141.5564  167.7428 C.ar    1  UNL1        0.0789
     10 C         138.8143  139.7110  164.6863 C.3     1  UNL1        0.1869
     11 C         137.9511  140.5715  163.8121 C.3     1  UNL1        0.1064
     12 N         137.4966  140.0650  162.4754 N.3     1  UNL1       -0.2930
     13 C         137.9053  138.6979  162.0128 C.3     1  UNL1        0.1011
     14 C         138.7685  137.8373  162.8870 C.3     1  UNL1        0.1597
     15 O         139.2230  138.3439  164.2238 O.3     1  UNL1       -0.3458
     16 H         137.8387  140.7262  161.7781 H       1  UNL1        0.1234
     17 C         140.6931  142.3277  165.2084 C.3     1  UNL1        0.1340
     18 F         146.4141  141.7578  163.4924 F       1  UNL1       -0.2042
     19 C         144.9839  141.9003  163.9214 C.ar    1  UNL1        0.1401
     20 C         144.2283  140.7049  164.4217 C.ar    1  UNL1        0.0294
     21 C         142.7981  140.8475  164.8507 C.ar    1  UNL1       -0.0001
     22 C         142.1233  142.1853  164.7794 C.ar    1  UNL1        0.0006
     23 C         142.8789  143.3806  164.2791 C.ar    1  UNL1       -0.0001
     24 C         144.3092  143.2381  163.8501 C.ar    1  UNL1        0.0294
@<TRIPOS>BOND
     1    18    19    1
     2    19    20   ar
     3    20    21   ar
     4    21    22   ar
     5    22    17    1
     6    17     1    1
     7     1     2   ar
     8    10     2    1
     9    10    11    1
    10    11    12    1
    11    12    13    1
    12    13    14    1
    13    14    15    1
    14     2     3   ar
    15     3     4   ar
    16     4     5   ar
    17     5     6   ar
    18     6     7   ar
    19     7     8   ar
    20     8     9   ar
    21    22    23   ar
    22    23    24   ar
    23    24    19   ar
    24     9     1   ar
    25    15    10    1
    26     9     4   ar
    27    12    16    1
