@<TRIPOS>MOLECULE
*****
 24 27 0 0 0
SMALL
GASTEIGER

@<TRIPOS>ATOM
      1 N         137.3551  144.3906  162.4837 N.pl3   1  UNL1       -0.3128
      2 C         137.7476  143.0145  162.9336 C.ar    1  UNL1        0.2859
      3 N         138.4655  142.6742  164.2059 N.ar    1  UNL1       -0.1948
      4 C         138.6526  141.1864  164.2487 C.ar    1  UNL1        0.1245
      5 C         139.2936  140.2843  165.2612 C.ar    1  UNL1        0.0741
      6 C         139.3325  138.8031  165.0279 C.ar    1  UNL1        0.0062
      7 C         138.7303  138.2240  163.7821 C.ar    1  UNL1        0.0034
      8 C         138.0892  139.1262  162.7696 C.ar    1  UNL1        0.0392
      9 C         138.0504  140.6074  163.0029 C.ar    1  UNL1        0.1661
     10 O         137.4911  141.7372  162.1901 O.2     1  UNL1       -0.4240
     11 H         137.5685  145.1714  163.0441 H       1  UNL1        0.1466
     12 H         136.8840  144.5131  161.6279 H       1  UNL1        0.1466
     13 C         139.8959  140.8634  166.5070 C.2     1  UNL1        0.2474
     14 O         140.0496  140.0112  167.7319 O.2     1  UNL1       -0.2701
     15 N         140.3444  142.2946  166.5280 N.am    1  UNL1       -0.3011
     16 H         140.2861  142.9312  165.7792 H       1  UNL1        0.1497
     17 C         141.3313  142.8110  168.9621 C.3     1  UNL1        0.0878
     18 C         142.6615  142.5471  168.9366 C.3     1  UNL1        0.0919
     19 N         143.4711  142.4006  168.9698 N.3     1  UNL1       -0.2713
     20 C         142.8278  142.8914  170.2328 C.3     1  UNL1        0.0722
     21 C         141.3568  143.1832  170.2610 C.3     1  UNL1        0.0191
     22 C         140.5290  142.9843  169.0261 C.3     1  UNL1        0.0221
     23 C         141.1722  142.4935  167.7629 C.3     1  UNL1        0.0191
     24 C         142.6432  142.2017  167.7348 C.3     1  UNL1        0.0722
@<TRIPOS>BOND
     1     1     2    1
     2     2     3   ar
     3     3     4   ar
     4     4     5   ar
     5     5    13    1
     6    13    14    2
     7    13    15   am
     8    17    15    1
     9    17    18    1
    10    18    19    1
    11    19    20    1
    12    20    21    1
    13    21    22    1
    14    22    23    1
    15    23    24    1
    16     5     6   ar
    17     6     7   ar
    18     7     8   ar
    19     8     9   ar
    20     9    10   ar
    21    10     2   ar
    22     9     4   ar
    23    22    17    1
    24    24    19    1
    25     1    11    1
    26     1    12    1
    27    15    16    1
@<TRIPOS>MOLECULE
*****
 24 27 0 0 0
SMALL
GASTEIGER

@<TRIPOS>ATOM
      1 N         143.6943  144.1163  171.3605 N.pl3   1  UNL1       -0.3128
      2 C         142.7819  143.2117  170.5863 C.ar    1  UNL1        0.2859
      3 N         142.9234  142.8461  169.1384 N.ar    1  UNL1       -0.1948
      4 C         141.7967  141.9223  168.7814 C.ar    1  UNL1        0.1245
      5 C         141.4255  141.2416  167.4974 C.ar    1  UNL1        0.0741
      6 C         140.2165  140.3556  167.4406 C.ar    1  UNL1        0.0062
      7 C         139.3787  140.1503  168.6677 C.ar    1  UNL1        0.0034
      8 C         139.7500  140.8311  169.9518 C.ar    1  UNL1        0.0392
      9 C         140.9590  141.7171  170.0086 C.ar    1  UNL1        0.1661
     10 O         141.5679  142.5140  171.1241 O.2     1  UNL1       -0.4240
     11 H         144.4699  144.5299  170.9170 H       1  UNL1        0.1466
     12 H         143.5176  144.2965  172.3120 H       1  UNL1        0.1466
     13 C         142.2633  141.4468  166.2702 C.2     1  UNL1        0.2474
     14 O         141.8819  140.7805  164.9816 O.2     1  UNL1       -0.2701
     15 N         143.4825  142.3185  166.3316 N.am    1  UNL1       -0.3011
     16 H         143.8137  142.7965  167.1260 H       1  UNL1        0.1497
     17 C         144.5980  142.3439  163.8984 C.3     1  UNL1        0.0878
     18 C         144.0875  143.4001  163.2173 C.3     1  UNL1        0.0919
     19 N         143.8065  144.0278  162.7646 N.3     1  UNL1       -0.2713
     20 C         144.8152  143.1305  162.1109 C.3     1  UNL1        0.0722
     21 C         145.3797  141.9625  162.8641 C.3     1  UNL1        0.0191
     22 C         144.9355  141.6919  164.2709 C.3     1  UNL1        0.0221
     23 C         143.9267  142.5892  164.9247 C.3     1  UNL1        0.0191
     24 C         143.3622  143.7571  164.1715 C.3     1  UNL1        0.0722
@<TRIPOS>BOND
     1     1     2    1
     2     2     3   ar
     3     3     4   ar
     4     4     5   ar
     5     5    13    1
     6    13    14    2
     7    13    15   am
     8    17    15    1
     9    17    18    1
    10    18    19    1
    11    19    20    1
    12    20    21    1
    13    21    22    1
    14    22    23    1
    15    23    24    1
    16     5     6   ar
    17     6     7   ar
    18     7     8   ar
    19     8     9   ar
    20     9    10   ar
    21    10     2   ar
    22     9     4   ar
    23    22    17    1
    24    24    19    1
    25     1    11    1
    26     1    12    1
    27    15    16    1
@<TRIPOS>MOLECULE
*****
 24 27 0 0 0
SMALL
GASTEIGER

@<TRIPOS>ATOM
      1 N         140.5732  146.2236  162.4991 N.pl3   1  UNL1       -0.3128
      2 C         141.5734  145.1724  162.8796 C.ar    1  UNL1        0.2859
      3 N         141.5392  144.3310  164.1209 N.ar    1  UNL1       -0.1948
      4 C         142.7281  143.4168  164.0941 C.ar    1  UNL1        0.1245
      5 C         143.2098  142.3683  165.0525 C.ar    1  UNL1        0.0741
      6 C         144.4605  141.5962  164.7531 C.ar    1  UNL1        0.0062
      7 C         145.2294  141.8725  163.4952 C.ar    1  UNL1        0.0034
      8 C         144.7477  142.9210  162.5368 C.ar    1  UNL1        0.0392
      9 C         143.4970  143.6931  162.8362 C.ar    1  UNL1        0.1661
     10 O         142.7834  144.7782  162.0856 O.2     1  UNL1       -0.4240
     11 H         139.8078  146.4115  163.0892 H       1  UNL1        0.1466
     12 H         140.6820  146.7256  161.6592 H       1  UNL1        0.1466
     13 C         142.4408  142.0920  166.3105 C.2     1  UNL1        0.2474
     14 O         143.1079  141.3964  167.4598 O.2     1  UNL1       -0.2701
     15 N         141.0047  142.5113  166.4190 N.am    1  UNL1       -0.3011
     16 H         140.4811  142.9710  165.7235 H       1  UNL1        0.1497
     17 C         140.1180  141.7880  168.8389 C.3     1  UNL1        0.0878
     18 C         139.6090  140.5347  168.7385 C.3     1  UNL1        0.0919
     19 N         139.2891  139.7761  168.7268 N.3     1  UNL1       -0.2713
     20 C         139.2757  140.4874  170.0473 C.3     1  UNL1        0.0722
     21 C         139.8386  141.8734  170.1584 C.3     1  UNL1        0.0191
     22 C         140.4149  142.5480  168.9490 C.3     1  UNL1        0.0221
     23 C         140.4284  141.8367  167.6284 C.3     1  UNL1        0.0191
     24 C         139.8655  140.4507  167.5173 C.3     1  UNL1        0.0722
@<TRIPOS>BOND
     1     1     2    1
     2     2     3   ar
     3     3     4   ar
     4     4     5   ar
     5     5    13    1
     6    13    14    2
     7    13    15   am
     8    17    15    1
     9    17    18    1
    10    18    19    1
    11    19    20    1
    12    20    21    1
    13    21    22    1
    14    22    23    1
    15    23    24    1
    16     5     6   ar
    17     6     7   ar
    18     7     8   ar
    19     8     9   ar
    20     9    10   ar
    21    10     2   ar
    22     9     4   ar
    23    22    17    1
    24    24    19    1
    25     1    11    1
    26     1    12    1
    27    15    16    1
@<TRIPOS>MOLECULE
*****
 24 27 0 0 0
SMALL
GASTEIGER

@<TRIPOS>ATOM
      1 N         137.5408  138.6854  161.8732 N.pl3   1  UNL1       -0.3128
      2 C         137.8151  140.0229  162.4944 C.ar    1  UNL1        0.2859
      3 N         138.6107  140.2691  163.7420 N.ar    1  UNL1       -0.1948
      4 C         138.6291  141.7475  163.9958 C.ar    1  UNL1        0.1245
      5 C         139.2587  142.5721  165.0791 C.ar    1  UNL1        0.0741
      6 C         139.1041  144.0640  165.0718 C.ar    1  UNL1        0.0062
      7 C         138.3200  144.7314  163.9811 C.ar    1  UNL1        0.0034
      8 C         137.6905  143.9068  162.8977 C.ar    1  UNL1        0.0392
      9 C         137.8450  142.4149  162.9050 C.ar    1  UNL1        0.1661
     10 O         137.3419  141.3491  161.9772 O.2     1  UNL1       -0.4240
     11 H         137.8965  137.8671  162.2893 H       1  UNL1        0.1466
     12 H         137.0051  138.6259  161.0493 H       1  UNL1        0.1466
     13 C         140.0428  141.9046  166.1699 C.2     1  UNL1        0.2474
     14 O         140.8246  142.7328  167.1461 O.2     1  UNL1       -0.2701
     15 N         140.0452  140.4090  166.2844 N.am    1  UNL1       -0.3011
     16 H         139.5664  139.7819  165.6955 H       1  UNL1        0.1497
     17 C         141.5819  139.7471  168.3739 C.3     1  UNL1        0.0878
     18 C         140.8069  139.7768  169.4867 C.3     1  UNL1        0.0919
     19 N         140.3772  139.7812  170.1890 N.3     1  UNL1       -0.2713
     20 C         141.8287  139.4182  170.2953 C.3     1  UNL1        0.0722
     21 C         142.6857  139.3855  169.0647 C.3     1  UNL1        0.0191
     22 C         142.0912  139.7157  167.7278 C.3     1  UNL1        0.0221
     23 C         140.6396  140.0787  167.6214 C.3     1  UNL1        0.0191
     24 C         139.7826  140.1115  168.8520 C.3     1  UNL1        0.0722
@<TRIPOS>BOND
     1     1     2    1
     2     2     3   ar
     3     3     4   ar
     4     4     5   ar
     5     5    13    1
     6    13    14    2
     7    13    15   am
     8    17    15    1
     9    17    18    1
    10    18    19    1
    11    19    20    1
    12    20    21    1
    13    21    22    1
    14    22    23    1
    15    23    24    1
    16     5     6   ar
    17     6     7   ar
    18     7     8   ar
    19     8     9   ar
    20     9    10   ar
    21    10     2   ar
    22     9     4   ar
    23    22    17    1
    24    24    19    1
    25     1    11    1
    26     1    12    1
    27    15    16    1
@<TRIPOS>MOLECULE
*****
 24 27 0 0 0
SMALL
GASTEIGER

@<TRIPOS>ATOM
      1 N         143.9142  145.2134  162.8465 N.pl3   1  UNL1       -0.3128
      2 C         142.5014  144.8172  163.1580 C.ar    1  UNL1        0.2859
      3 N         142.0581  143.9665  164.3112 N.ar    1  UNL1       -0.1948
      4 C         140.5665  143.8257  164.2369 C.ar    1  UNL1        0.1245
      5 C         139.5823  143.1008  165.1062 C.ar    1  UNL1        0.0741
      6 C         138.1195  143.1395  164.7765 C.ar    1  UNL1        0.0062
      7 C         137.6410  143.9031  163.5774 C.ar    1  UNL1        0.0034
      8 C         138.6252  144.6280  162.7081 C.ar    1  UNL1        0.0392
      9 C         140.0880  144.5893  163.0378 C.ar    1  UNL1        0.1661
     10 O         141.2838  145.2021  162.3710 O.2     1  UNL1       -0.4240
     11 H         144.6498  144.9094  163.4258 H       1  UNL1        0.1466
     12 H         144.1058  145.7775  162.0626 H       1  UNL1        0.1466
     13 C         140.0609  142.3372  166.3054 C.2     1  UNL1        0.2474
     14 O         140.7686  143.0533  167.4172 O.2     1  UNL1       -0.2701
     15 N         139.8317  140.8573  166.3927 N.am    1  UNL1       -0.3011
     16 H         139.3797  140.3002  165.7185 H       1  UNL1        0.1497
     17 C         140.8694  140.0001  168.7065 C.3     1  UNL1        0.0878
     18 C         142.1558  139.6364  168.4766 C.3     1  UNL1        0.0919
     19 N         142.9403  139.4035  168.3859 N.3     1  UNL1       -0.2713
     20 C         142.3607  139.2798  169.7639 C.3     1  UNL1        0.0722
     21 C         140.9382  139.6819  170.0181 C.3     1  UNL1        0.0191
     22 C         140.0952  140.2078  168.8944 C.3     1  UNL1        0.0221
     23 C         140.6747  140.3315  167.5164 C.3     1  UNL1        0.0191
     24 C         142.0972  139.9294  167.2621 C.3     1  UNL1        0.0722
@<TRIPOS>BOND
     1     1     2    1
     2     2     3   ar
     3     3     4   ar
     4     4     5   ar
     5     5    13    1
     6    13    14    2
     7    13    15   am
     8    17    15    1
     9    17    18    1
    10    18    19    1
    11    19    20    1
    12    20    21    1
    13    21    22    1
    14    22    23    1
    15    23    24    1
    16     5     6   ar
    17     6     7   ar
    18     7     8   ar
    19     8     9   ar
    20     9    10   ar
    21    10     2   ar
    22     9     4   ar
    23    22    17    1
    24    24    19    1
    25     1    11    1
    26     1    12    1
    27    15    16    1
@<TRIPOS>MOLECULE
*****
 24 27 0 0 0
SMALL
GASTEIGER

@<TRIPOS>ATOM
      1 N         146.2625  141.8403  163.2663 N.pl3   1  UNL1       -0.3128
      2 C         145.0891  140.9525  163.5583 C.ar    1  UNL1        0.2859
      3 N         144.1361  141.1002  164.7072 N.ar    1  UNL1       -0.1948
      4 C         143.1208  140.0001  164.6115 C.ar    1  UNL1        0.1245
      5 C         141.9419  139.6450  165.4684 C.ar    1  UNL1        0.0741
      6 C         141.0887  138.4624  165.1173 C.ar    1  UNL1        0.0062
      7 C         141.4144  137.6348  163.9095 C.ar    1  UNL1        0.0034
      8 C         142.5933  137.9898  163.0527 C.ar    1  UNL1        0.0392
      9 C         143.4465  139.1725  163.4037 C.ar    1  UNL1        0.1661
     10 O         144.6630  139.7611  162.7528 O.2     1  UNL1       -0.4240
     11 H         146.4624  142.6021  163.8571 H       1  UNL1        0.1466
     12 H         146.8326  141.6612  162.4839 H       1  UNL1        0.1466
     13 C         141.6163  140.4727  166.6763 C.2     1  UNL1        0.2474
     14 O         142.6002  140.5733  167.8040 O.2     1  UNL1       -0.2701
     15 N         140.3067  141.1998  166.7564 N.am    1  UNL1       -0.3011
     16 H         139.5991  141.1963  166.0718 H       1  UNL1        0.1497
     17 C         140.2347  142.5083  169.0905 C.3     1  UNL1        0.0878
     18 C         139.7169  141.6696  170.0223 C.3     1  UNL1        0.0919
     19 N         139.4079  141.1975  170.6219 N.3     1  UNL1       -0.2713
     20 C         139.8175  142.5875  171.0090 C.3     1  UNL1        0.0722
     21 C         140.3901  143.5151  169.9785 C.3     1  UNL1        0.0191
     22 C         140.5532  143.0525  168.5610 C.3     1  UNL1        0.0221
     23 C         140.1436  141.6623  168.1739 C.3     1  UNL1        0.0191
     24 C         139.5710  140.7348  169.2043 C.3     1  UNL1        0.0722
@<TRIPOS>BOND
     1     1     2    1
     2     2     3   ar
     3     3     4   ar
     4     4     5   ar
     5     5    13    1
     6    13    14    2
     7    13    15   am
     8    17    15    1
     9    17    18    1
    10    18    19    1
    11    19    20    1
    12    20    21    1
    13    21    22    1
    14    22    23    1
    15    23    24    1
    16     5     6   ar
    17     6     7   ar
    18     7     8   ar
    19     8     9   ar
    20     9    10   ar
    21    10     2   ar
    22     9     4   ar
    23    22    17    1
    24    24    19    1
    25     1    11    1
    26     1    12    1
    27    15    16    1
@<TRIPOS>MOLECULE
*****
 24 27 0 0 0
SMALL
GASTEIGER

@<TRIPOS>ATOM
      1 N         138.1903  137.4708  162.0205 N.pl3   1  UNL1       -0.3128
      2 C         139.5637  137.8596  162.4819 C.ar    1  UNL1        0.2859
      3 N         139.9086  138.4691  163.8083 N.ar    1  UNL1       -0.1948
      4 C         141.3914  138.6932  163.8439 C.ar    1  UNL1        0.1245
      5 C         142.2950  139.2654  164.8956 C.ar    1  UNL1        0.0741
      6 C         143.7701  139.3665  164.6429 C.ar    1  UNL1        0.0062
      7 C         144.3415  138.8954  163.3385 C.ar    1  UNL1        0.0034
      8 C         143.4379  138.3233  162.2868 C.ar    1  UNL1        0.0392
      9 C         141.9628  138.2222  162.5395 C.ar    1  UNL1        0.1661
     10 O         140.8333  137.7069  161.6977 O.2     1  UNL1       -0.4240
     11 H         137.4148  137.6110  162.6106 H       1  UNL1        0.1466
     12 H         138.0644  137.0755  161.1277 H       1  UNL1        0.1466
     13 C         141.7235  139.7364  166.2000 C.2     1  UNL1        0.2474
     14 O         142.5492  139.6643  167.4502 O.2     1  UNL1       -0.2701
     15 N         140.3264  140.2796  166.2542 N.am    1  UNL1       -0.3011
     16 H         139.7087  140.3672  165.4926 H       1  UNL1        0.1497
     17 C         139.8101  140.9683  168.7889 C.3     1  UNL1        0.0878
     18 C         140.2277  142.2466  168.9664 C.3     1  UNL1        0.0919
     19 N         140.4655  143.0193  169.1220 N.3     1  UNL1       -0.2713
     20 C         139.8423  142.2689  170.2615 C.3     1  UNL1        0.0722
     21 C         139.3805  140.8553  170.0652 C.3     1  UNL1        0.0191
     22 C         139.5418  140.1922  168.7295 C.3     1  UNL1        0.0221
     23 C         140.1650  140.9427  167.5899 C.3     1  UNL1        0.0191
     24 C         140.6269  142.3562  167.7862 C.3     1  UNL1        0.0722
@<TRIPOS>BOND
     1     1     2    1
     2     2     3   ar
     3     3     4   ar
     4     4     5   ar
     5     5    13    1
     6    13    14    2
     7    13    15   am
     8    17    15    1
     9    17    18    1
    10    18    19    1
    11    19    20    1
    12    20    21    1
    13    21    22    1
    14    22    23    1
    15    23    24    1
    16     5     6   ar
    17     6     7   ar
    18     7     8   ar
    19     8     9   ar
    20     9    10   ar
    21    10     2   ar
    22     9     4   ar
    23    22    17    1
    24    24    19    1
    25     1    11    1
    26     1    12    1
    27    15    16    1
@<TRIPOS>MOLECULE
*****
 24 27 0 0 0
SMALL
GASTEIGER

@<TRIPOS>ATOM
      1 N         143.9797  145.4453  162.8479 N.pl3   1  UNL1       -0.3128
      2 C         143.9143  143.9552  163.0079 C.ar    1  UNL1        0.2859
      3 N         143.2897  143.2182  164.1553 N.ar    1  UNL1       -0.1948
      4 C         143.4514  141.7481  163.9050 C.ar    1  UNL1        0.1245
      5 C         143.0326  140.5435  164.6946 C.ar    1  UNL1        0.0741
      6 C         143.3382  139.1673  164.1821 C.ar    1  UNL1        0.0062
      7 C         144.0627  138.9957  162.8799 C.ar    1  UNL1        0.0034
      8 C         144.4816  140.2004  162.0904 C.ar    1  UNL1        0.0392
      9 C         144.1760  141.5765  162.6029 C.ar    1  UNL1        0.1661
     10 O         144.4620  142.9406  162.0484 O.2     1  UNL1       -0.4240
     11 H         143.5893  146.0318  163.5355 H       1  UNL1        0.1466
     12 H         144.4130  145.8367  162.0552 H       1  UNL1        0.1466
     13 C         142.3080  140.7151  165.9968 C.2     1  UNL1        0.2474
     14 O         142.8052  140.0192  167.2291 O.2     1  UNL1       -0.2701
     15 N         141.0863  141.5825  166.0666 N.am    1  UNL1       -0.3011
     16 H         140.6839  142.0783  165.3172 H       1  UNL1        0.1497
     17 C         140.1939  141.5438  168.5901 C.3     1  UNL1        0.0878
     18 C         139.4956  140.3945  168.7672 C.3     1  UNL1        0.0919
     19 N         139.0632  139.7112  168.9224 N.3     1  UNL1       -0.2713
     20 C         139.2101  140.6820  170.0564 C.3     1  UNL1        0.0722
     21 C         139.9823  141.9529  169.8606 C.3     1  UNL1        0.0191
     22 C         140.6077  142.2531  168.5306 C.3     1  UNL1        0.0221
     23 C         140.4609  141.2823  167.3965 C.3     1  UNL1        0.0191
     24 C         139.6886  140.0114  167.5924 C.3     1  UNL1        0.0722
@<TRIPOS>BOND
     1     1     2    1
     2     2     3   ar
     3     3     4   ar
     4     4     5   ar
     5     5    13    1
     6    13    14    2
     7    13    15   am
     8    17    15    1
     9    17    18    1
    10    18    19    1
    11    19    20    1
    12    20    21    1
    13    21    22    1
    14    22    23    1
    15    23    24    1
    16     5     6   ar
    17     6     7   ar
    18     7     8   ar
    19     8     9   ar
    20     9    10   ar
    21    10     2   ar
    22     9     4   ar
    23    22    17    1
    24    24    19    1
    25     1    11    1
    26     1    12    1
    27    15    16    1
@<TRIPOS>MOLECULE
*****
 24 27 0 0 0
SMALL
GASTEIGER

@<TRIPOS>ATOM
      1 N         143.4152  143.9069  171.1484 N.pl3   1  UNL1       -0.3128
      2 C         142.4270  142.9882  170.4930 C.ar    1  UNL1        0.2859
      3 N         142.5129  142.4542  169.0939 N.ar    1  UNL1       -0.1948
      4 C         141.3183  141.5782  168.8579 C.ar    1  UNL1        0.1245
      5 C         140.8745  140.7864  167.6638 C.ar    1  UNL1        0.0741
      6 C         139.6066  139.9871  167.7228 C.ar    1  UNL1        0.0062
      7 C         138.7825  139.9797  168.9761 C.ar    1  UNL1        0.0034
      8 C         139.2262  140.7716  170.1702 C.ar    1  UNL1        0.0392
      9 C         140.4941  141.5709  170.1112 C.ar    1  UNL1        0.1661
     10 O         141.1793  142.4422  171.1217 O.2     1  UNL1       -0.4240
     11 H         144.2080  144.2126  170.6511 H       1  UNL1        0.1466
     12 H         143.2710  144.2041  172.0758 H       1  UNL1        0.1466
     13 C         141.6988  140.7938  166.4105 C.2     1  UNL1        0.2474
     14 O         141.0562  141.1079  165.0921 O.2     1  UNL1       -0.2701
     15 N         143.1657  140.4871  166.4758 N.am    1  UNL1       -0.3011
     16 H         143.6767  140.2702  167.2888 H       1  UNL1        0.1497
     17 C         144.1474  140.6344  163.9898 C.3     1  UNL1        0.0878
     18 C         143.9120  139.4469  163.3781 C.3     1  UNL1        0.0919
     19 N         143.7916  138.7446  162.9655 N.3     1  UNL1       -0.2713
     20 C         144.4951  139.8431  162.2252 C.3     1  UNL1        0.0722
     21 C         144.7555  141.1564  162.9016 C.3     1  UNL1        0.0191
     22 C         144.3124  141.3710  164.3185 C.3     1  UNL1        0.0221
     23 C         143.6088  140.2724  165.0589 C.3     1  UNL1        0.0191
     24 C         143.3485  138.9592  164.3825 C.3     1  UNL1        0.0722
@<TRIPOS>BOND
     1     1     2    1
     2     2     3   ar
     3     3     4   ar
     4     4     5   ar
     5     5    13    1
     6    13    14    2
     7    13    15   am
     8    17    15    1
     9    17    18    1
    10    18    19    1
    11    19    20    1
    12    20    21    1
    13    21    22    1
    14    22    23    1
    15    23    24    1
    16     5     6   ar
    17     6     7   ar
    18     7     8   ar
    19     8     9   ar
    20     9    10   ar
    21    10     2   ar
    22     9     4   ar
    23    22    17    1
    24    24    19    1
    25     1    11    1
    26     1    12    1
    27    15    16    1
