@<TRIPOS>MOLECULE
*****
 38 43 0 0 0
SMALL
GASTEIGER

@<TRIPOS>ATOM
      1 C         140.3695  138.2514  164.6283 C.3     1  UNL1        0.0955
      2 C         139.1202  138.6993  165.3276 C.3     1  UNL1        0.0287
      3 C         139.2147  139.5252  166.5761 C.3     1  UNL1        0.0193
      4 C         140.5583  139.9033  167.1254 C.3     1  UNL1        0.0700
      5 C         141.8074  139.4555  166.4262 C.3     1  UNL1        0.0193
      6 C         141.7131  138.6295  165.1776 C.3     1  UNL1        0.0287
      7 C         140.5569  139.4494  166.4384 C.3     1  UNL1        0.1562
      8 O         140.4715  138.7026  165.3095 O.3     1  UNL1       -0.3571
      9 N         140.6527  140.7293  168.3740 N.3     1  UNL1       -0.2939
     10 H         141.4184  140.3424  168.9258 H       1  UNL1        0.1235
     11 C         140.8910  142.2072  168.2792 C.3     1  UNL1        0.0954
     12 C         140.3026  142.9904  167.1432 C.2     1  UNL1       -0.0089
     13 C         140.9664  142.9748  165.7982 C.2     1  UNL1        0.0013
     14 C         140.3780  143.7581  164.6623 C.ar    1  UNL1        0.0546
     15 C         141.2111  144.7772  163.9430 C.ar    1  UNL1        0.1422
     16 F         142.6327  145.0129  164.3595 F       1  UNL1       -0.2041
     17 C         140.6226  145.5604  162.8071 C.ar    1  UNL1        0.0298
     18 C         139.2010  145.3245  162.3906 C.ar    1  UNL1        0.0046
     19 C         138.3680  144.3055  163.1099 C.ar    1  UNL1        0.0298
     20 C         138.9564  143.5223  164.2458 C.ar    1  UNL1        0.1422
     21 F         138.1233  142.5032  164.9651 F       1  UNL1       -0.2041
     22 C         140.2750  137.4254  163.3798 C.3     1  UNL1        0.0604
     23 O         137.2637  141.2298  161.7243 O.2     1  UNL1       -0.2670
     24 C         138.3845  140.9178  160.7774 C.ar    1  UNL1        0.2611
     25 C         138.5268  141.6942  159.5019 C.ar    1  UNL1        0.0623
     26 C         139.6475  141.3822  158.5551 C.ar    1  UNL1        0.0254
     27 C         140.6260  140.2939  158.8837 C.ar    1  UNL1        0.0972
     28 N         141.8256  139.7724  158.1358 N.ar    1  UNL1       -0.2400
     29 C         142.7225  138.6620  158.5968 C.ar    1  UNL1        0.1282
     30 C         142.4543  137.9744  159.9026 C.ar    1  UNL1        0.1588
     31 F         143.3511  136.8639  160.3636 F       1  UNL1       -0.2027
     32 C         141.2892  138.3972  160.7475 C.ar    1  UNL1        0.0500
     33 C         140.4837  139.5175  160.1592 C.ar    1  UNL1        0.0806
     34 N         139.3629  139.8295  161.1061 N.ar    1  UNL1       -0.2915
     35 C         139.4757  138.9020  162.2795 C.3     1  UNL1        0.1402
     36 C         140.6662  138.0167  162.0579 C.3     1  UNL1        0.1335
     37 O         141.7749  137.0079  162.1126 O.3     1  UNL1       -0.3806
     38 H         141.7031  136.4925  162.9313 H       1  UNL1        0.2108
@<TRIPOS>BOND
     1    23    24    2
     2    24    25   ar
     3    25    26   ar
     4    26    27   ar
     5    27    28   ar
     6    28    29   ar
     7    29    30   ar
     8    30    31    1
     9    30    32   ar
    10    32    33   ar
    11    33    34   ar
    12    34    35    1
    13    35    36    1
    14    36    37    1
    15    36    22    1
    16    22     1    1
    17     1     2    1
    18     2     3    1
    19     3     4    1
    20     4     9    1
    21     9    11    1
    22    11    12    1
    23    12    13    2
    24    13    14    1
    25    14    15   ar
    26    15    16    1
    27    15    17   ar
    28    17    18   ar
    29    18    19   ar
    30    19    20   ar
    31    20    21    1
    32     4     5    1
    33     5     6    1
    34     4     7    1
    35     7     8    1
    36    34    24   ar
    37     6     1    1
    38    33    27   ar
    39     8     1    1
    40    36    32    1
    41    20    14   ar
    42    37    38    1
    43     9    10    1
@<TRIPOS>MOLECULE
*****
 38 43 0 0 0
SMALL
GASTEIGER

@<TRIPOS>ATOM
      1 C         138.4294  139.1725  164.6860 C.3     1  UNL1        0.0955
      2 C         137.8351  140.5344  164.4804 C.3     1  UNL1        0.0287
      3 C         137.6351  141.0636  163.0912 C.3     1  UNL1        0.0193
      4 C         138.0294  140.2309  161.9074 C.3     1  UNL1        0.0700
      5 C         138.6237  138.8691  162.1130 C.3     1  UNL1        0.0193
      6 C         138.8237  138.3398  163.5023 C.3     1  UNL1        0.0287
      7 C         138.1582  139.8983  162.6497 C.3     1  UNL1        0.1562
      8 O         138.3390  139.4198  163.9058 O.3     1  UNL1       -0.3571
      9 N         137.8295  140.7600  160.5182 N.3     1  UNL1       -0.2939
     10 H         137.0295  141.3918  160.5560 H       1  UNL1        0.1235
     11 C         138.9368  141.5041  159.8325 C.3     1  UNL1        0.0954
     12 C         139.7773  142.4772  160.6050 C.2     1  UNL1       -0.0089
     13 C         140.9881  141.9971  161.3489 C.2     1  UNL1        0.0013
     14 C         141.8285  142.9702  162.1213 C.ar    1  UNL1        0.0546
     15 C         141.2426  143.7036  163.2913 C.ar    1  UNL1        0.1422
     16 F         139.8162  143.4639  163.6887 F       1  UNL1       -0.2041
     17 C         142.0830  144.6768  164.0637 C.ar    1  UNL1        0.0298
     18 C         143.5094  144.9165  163.6662 C.ar    1  UNL1        0.0046
     19 C         144.0953  144.1831  162.4963 C.ar    1  UNL1        0.0298
     20 C         143.2549  143.2099  161.7238 C.ar    1  UNL1        0.1422
     21 F         143.8408  142.4765  160.5539 F       1  UNL1       -0.2041
     22 C         138.6294  138.6434  166.0752 C.3     1  UNL1        0.0604
     23 O         142.9992  140.9046  164.6352 O.2     1  UNL1       -0.2670
     24 C         142.6057  141.2378  166.0438 C.ar    1  UNL1        0.2611
     25 C         143.4670  142.1485  166.8676 C.ar    1  UNL1        0.0623
     26 C         143.0735  142.4817  168.2762 C.ar    1  UNL1        0.0254
     27 C         141.8187  141.9043  168.8610 C.ar    1  UNL1        0.0972
     28 N         141.1880  142.0613  170.2204 N.ar    1  UNL1       -0.2400
     29 C         139.9118  141.4120  170.6672 C.ar    1  UNL1        0.1282
     30 C         139.1547  140.5210  169.7275 C.ar    1  UNL1        0.1588
     31 F         137.8785  139.8717  170.1743 F       1  UNL1       -0.2027
     32 C         139.6738  140.2794  168.3410 C.ar    1  UNL1        0.0500
     33 C         140.9574  140.9936  168.0371 C.ar    1  UNL1        0.0806
     34 N         141.3509  140.6604  166.6285 N.ar    1  UNL1       -0.2915
     35 C         140.3105  139.7403  166.0620 C.3     1  UNL1        0.1402
     36 C         139.2740  139.5048  167.1203 C.3     1  UNL1        0.1335
     37 O         138.1027  139.0893  167.9603 O.3     1  UNL1       -0.3806
     38 H         137.5301  138.4983  167.4468 H       1  UNL1        0.2108
@<TRIPOS>BOND
     1    23    24    2
     2    24    25   ar
     3    25    26   ar
     4    26    27   ar
     5    27    28   ar
     6    28    29   ar
     7    29    30   ar
     8    30    31    1
     9    30    32   ar
    10    32    33   ar
    11    33    34   ar
    12    34    35    1
    13    35    36    1
    14    36    37    1
    15    36    22    1
    16    22     1    1
    17     1     2    1
    18     2     3    1
    19     3     4    1
    20     4     9    1
    21     9    11    1
    22    11    12    1
    23    12    13    2
    24    13    14    1
    25    14    15   ar
    26    15    16    1
    27    15    17   ar
    28    17    18   ar
    29    18    19   ar
    30    19    20   ar
    31    20    21    1
    32     4     5    1
    33     5     6    1
    34     4     7    1
    35     7     8    1
    36    34    24   ar
    37     6     1    1
    38    33    27   ar
    39     8     1    1
    40    36    32    1
    41    20    14   ar
    42    37    38    1
    43     9    10    1
@<TRIPOS>MOLECULE
*****
 38 43 0 0 0
SMALL
GASTEIGER

@<TRIPOS>ATOM
      1 C         138.4840  141.6543  164.9946 C.3     1  UNL1        0.0955
      2 C         138.3694  140.2243  165.4331 C.3     1  UNL1        0.0287
      3 C         139.3020  139.6825  166.4756 C.3     1  UNL1        0.0193
      4 C         140.3491  140.5706  167.0796 C.3     1  UNL1        0.0700
      5 C         140.4636  142.0005  166.6411 C.3     1  UNL1        0.0193
      6 C         139.5311  142.5424  165.5986 C.3     1  UNL1        0.0287
      7 C         139.8607  140.9125  166.5116 C.3     1  UNL1        0.1562
      8 O         139.0174  141.4024  165.5690 O.3     1  UNL1       -0.3571
      9 N         141.2817  140.0288  168.1221 N.3     1  UNL1       -0.2939
     10 H         140.7647  139.3171  168.6384 H       1  UNL1        0.1235
     11 C         142.5838  139.4068  167.7130 C.3     1  UNL1        0.0954
     12 C         142.7308  138.8042  166.3472 C.2     1  UNL1       -0.0089
     13 C         142.9014  139.6919  165.1502 C.2     1  UNL1        0.0013
     14 C         143.0484  139.0892  163.7844 C.ar    1  UNL1        0.0546
     15 C         144.2847  139.3534  162.9772 C.ar    1  UNL1        0.1422
     16 F         145.3741  140.2202  163.5357 F       1  UNL1       -0.2041
     17 C         144.4317  138.7507  161.6114 C.ar    1  UNL1        0.0298
     18 C         143.3422  137.8839  161.0530 C.ar    1  UNL1        0.0046
     19 C         142.1060  137.6198  161.8603 C.ar    1  UNL1        0.0298
     20 C         141.9590  138.2225  163.2260 C.ar    1  UNL1        0.1422
     21 F         140.7226  137.9583  164.0333 F       1  UNL1       -0.2041
     22 C         137.5514  142.1961  163.9521 C.3     1  UNL1        0.0604
     23 O         140.2957  146.1237  162.1288 O.2     1  UNL1       -0.2670
     24 C         140.0043  145.0823  161.0892 C.ar    1  UNL1        0.2611
     25 C         140.5068  145.2609  159.6873 C.ar    1  UNL1        0.0623
     26 C         140.2153  144.2195  158.6477 C.ar    1  UNL1        0.0254
     27 C         139.4214  142.9997  159.0102 C.ar    1  UNL1        0.0972
     28 N         138.9854  141.8136  158.1894 N.ar    1  UNL1       -0.2400
     29 C         138.1830  140.6525  158.6972 C.ar    1  UNL1        0.1282
     30 C         137.7487  140.6114  160.1324 C.ar    1  UNL1        0.1588
     31 F         136.9463  139.4502  160.6402 F       1  UNL1       -0.2027
     32 C         138.1168  141.7314  161.0597 C.ar    1  UNL1        0.0500
     33 C         138.9188  142.8211  160.4121 C.ar    1  UNL1        0.0806
     34 N         139.2103  143.8625  161.4517 N.ar    1  UNL1       -0.2915
     35 C         138.5884  143.4163  162.7417 C.3     1  UNL1        0.1402
     36 C         137.9126  142.0993  162.4995 C.3     1  UNL1        0.1335
     37 O         137.1613  140.8025  162.5610 O.3     1  UNL1       -0.3806
     38 H         136.8260  140.6653  163.4608 H       1  UNL1        0.2108
@<TRIPOS>BOND
     1    23    24    2
     2    24    25   ar
     3    25    26   ar
     4    26    27   ar
     5    27    28   ar
     6    28    29   ar
     7    29    30   ar
     8    30    31    1
     9    30    32   ar
    10    32    33   ar
    11    33    34   ar
    12    34    35    1
    13    35    36    1
    14    36    37    1
    15    36    22    1
    16    22     1    1
    17     1     2    1
    18     2     3    1
    19     3     4    1
    20     4     9    1
    21     9    11    1
    22    11    12    1
    23    12    13    2
    24    13    14    1
    25    14    15   ar
    26    15    16    1
    27    15    17   ar
    28    17    18   ar
    29    18    19   ar
    30    19    20   ar
    31    20    21    1
    32     4     5    1
    33     5     6    1
    34     4     7    1
    35     7     8    1
    36    34    24   ar
    37     6     1    1
    38    33    27   ar
    39     8     1    1
    40    36    32    1
    41    20    14   ar
    42    37    38    1
    43     9    10    1
@<TRIPOS>MOLECULE
*****
 38 43 0 0 0
SMALL
GASTEIGER

@<TRIPOS>ATOM
      1 C         140.8143  138.2231  164.7693 C.3     1  UNL1        0.0955
      2 C         142.2690  138.1138  165.1190 C.3     1  UNL1        0.0287
      3 C         142.7921  138.7665  166.3641 C.3     1  UNL1        0.0193
      4 C         141.8607  139.5286  167.2595 C.3     1  UNL1        0.0700
      5 C         140.4062  139.6380  166.9097 C.3     1  UNL1        0.0193
      6 C         139.8829  138.9853  165.6646 C.3     1  UNL1        0.0287
      7 C         141.5277  139.1879  166.5878 C.3     1  UNL1        0.1562
      8 O         141.0547  138.5977  165.4621 O.3     1  UNL1       -0.3571
      9 N         142.3839  140.1814  168.5046 N.3     1  UNL1       -0.2939
     10 H         143.1528  139.6014  168.8403 H       1  UNL1        0.1235
     11 C         142.8945  141.5909  168.4545 C.3     1  UNL1        0.0954
     12 C         142.6677  142.4277  167.2305 C.2     1  UNL1       -0.0089
     13 C         143.4822  142.1852  165.9945 C.2     1  UNL1        0.0013
     14 C         143.2553  143.0221  164.7705 C.ar    1  UNL1        0.0546
     15 C         143.9764  144.3275  164.6103 C.ar    1  UNL1        0.1422
     16 F         144.9245  144.7961  165.6741 F       1  UNL1       -0.2041
     17 C         143.7495  145.1645  163.3863 C.ar    1  UNL1        0.0298
     18 C         142.8014  144.6958  162.3226 C.ar    1  UNL1        0.0046
     19 C         142.0803  143.3904  162.4828 C.ar    1  UNL1        0.0298
     20 C         142.3072  142.5534  163.7068 C.ar    1  UNL1        0.1422
     21 F         141.5861  141.2480  163.8670 F       1  UNL1       -0.2041
     22 C         140.2912  137.5704  163.5242 C.3     1  UNL1        0.0604
     23 O         137.3198  141.4756  162.0398 O.2     1  UNL1       -0.2670
     24 C         138.3703  141.1237  161.0286 C.ar    1  UNL1        0.2611
     25 C         138.4628  141.8932  159.7444 C.ar    1  UNL1        0.0623
     26 C         139.5133  141.5414  158.7331 C.ar    1  UNL1        0.0254
     27 C         140.4714  140.4200  159.0061 C.ar    1  UNL1        0.0972
     28 N         141.6052  139.8562  158.1894 N.ar    1  UNL1       -0.2400
     29 C         142.4890  138.7157  158.5994 C.ar    1  UNL1        0.1282
     30 C         142.2758  138.0393  159.9211 C.ar    1  UNL1        0.1588
     31 F         143.1596  136.8988  160.3311 F       1  UNL1       -0.2027
     32 C         141.1788  138.5034  160.8329 C.ar    1  UNL1        0.0500
     33 C         140.3789  139.6504  160.2903 C.ar    1  UNL1        0.0806
     34 N         139.3284  140.0023  161.3015 N.ar    1  UNL1       -0.2915
     35 C         139.4791  139.0727  162.4691 C.3     1  UNL1        0.1402
     36 C         140.6227  138.1463  162.1794 C.3     1  UNL1        0.1335
     37 O         141.6970  137.0995  162.1709 O.3     1  UNL1       -0.3806
     38 H         141.6565  136.5879  162.9940 H       1  UNL1        0.2108
@<TRIPOS>BOND
     1    23    24    2
     2    24    25   ar
     3    25    26   ar
     4    26    27   ar
     5    27    28   ar
     6    28    29   ar
     7    29    30   ar
     8    30    31    1
     9    30    32   ar
    10    32    33   ar
    11    33    34   ar
    12    34    35    1
    13    35    36    1
    14    36    37    1
    15    36    22    1
    16    22     1    1
    17     1     2    1
    18     2     3    1
    19     3     4    1
    20     4     9    1
    21     9    11    1
    22    11    12    1
    23    12    13    2
    24    13    14    1
    25    14    15   ar
    26    15    16    1
    27    15    17   ar
    28    17    18   ar
    29    18    19   ar
    30    19    20   ar
    31    20    21    1
    32     4     5    1
    33     5     6    1
    34     4     7    1
    35     7     8    1
    36    34    24   ar
    37     6     1    1
    38    33    27   ar
    39     8     1    1
    40    36    32    1
    41    20    14   ar
    42    37    38    1
    43     9    10    1
@<TRIPOS>MOLECULE
*****
 38 43 0 0 0
SMALL
GASTEIGER

@<TRIPOS>ATOM
      1 C         138.5630  141.7767  164.3615 C.3     1  UNL1        0.0955
      2 C         138.0085  141.8257  162.9686 C.3     1  UNL1        0.0287
      3 C         137.9973  143.1202  162.2108 C.3     1  UNL1        0.0193
      4 C         138.5406  144.3657  162.8460 C.3     1  UNL1        0.0700
      5 C         139.0951  144.3167  164.2388 C.3     1  UNL1        0.0193
      6 C         139.1064  143.0223  164.9967 C.3     1  UNL1        0.0287
      7 C         138.5681  143.6797  163.3006 C.3     1  UNL1        0.1562
      8 O         138.5782  142.5092  163.9857 O.3     1  UNL1       -0.3571
      9 N         138.5294  145.6602  162.0882 N.3     1  UNL1       -0.2939
     10 H         138.1802  146.3732  162.7286 H       1  UNL1        0.1235
     11 C         139.8004  146.1942  161.4971 C.3     1  UNL1        0.0954
     12 C         140.9155  145.2552  161.1435 C.2     1  UNL1       -0.0089
     13 C         140.7723  144.3276  159.9735 C.2     1  UNL1        0.0013
     14 C         141.8875  143.3887  159.6199 C.ar    1  UNL1        0.0546
     15 C         142.8324  143.7320  158.5067 C.ar    1  UNL1        0.1422
     16 F         142.6623  145.0142  157.7471 F       1  UNL1       -0.2041
     17 C         143.9476  142.7932  158.1531 C.ar    1  UNL1        0.0298
     18 C         144.1176  141.5109  158.9128 C.ar    1  UNL1        0.0046
     19 C         143.1727  141.1677  160.0259 C.ar    1  UNL1        0.0298
     20 C         142.0576  142.1065  160.3795 C.ar    1  UNL1        0.1422
     21 F         141.1126  141.7632  161.4927 F       1  UNL1       -0.2041
     22 C         138.5742  140.4822  165.1192 C.3     1  UNL1        0.0604
     23 O         138.8461  140.7963  170.2290 O.2     1  UNL1       -0.2670
     24 C         140.0802  140.2061  169.6136 C.ar    1  UNL1        0.2611
     25 C         141.2239  139.7814  170.4863 C.ar    1  UNL1        0.0623
     26 C         142.4579  139.1912  169.8708 C.ar    1  UNL1        0.0254
     27 C         142.5484  139.0258  168.3828 C.ar    1  UNL1        0.0972
     28 N         143.6424  138.4745  167.5055 N.ar    1  UNL1       -0.2400
     29 C         143.5888  138.3712  166.0100 C.ar    1  UNL1        0.1282
     30 C         142.3714  138.8393  165.2691 C.ar    1  UNL1        0.1588
     31 F         142.3179  138.7360  163.7737 F       1  UNL1       -0.2027
     32 C         141.2077  139.4106  166.0236 C.ar    1  UNL1        0.0500
     33 C         141.4047  139.4505  167.5101 C.ar    1  UNL1        0.0806
     34 N         140.1706  140.0407  168.1255 N.ar    1  UNL1       -0.2915
     35 C         139.2110  140.3655  167.0194 C.3     1  UNL1        0.1402
     36 C         139.8519  139.9760  165.7203 C.3     1  UNL1        0.1335
     37 O         140.2257  139.6924  164.2957 O.3     1  UNL1       -0.3806
     38 H         139.4991  139.9597  163.7113 H       1  UNL1        0.2108
@<TRIPOS>BOND
     1    23    24    2
     2    24    25   ar
     3    25    26   ar
     4    26    27   ar
     5    27    28   ar
     6    28    29   ar
     7    29    30   ar
     8    30    31    1
     9    30    32   ar
    10    32    33   ar
    11    33    34   ar
    12    34    35    1
    13    35    36    1
    14    36    37    1
    15    36    22    1
    16    22     1    1
    17     1     2    1
    18     2     3    1
    19     3     4    1
    20     4     9    1
    21     9    11    1
    22    11    12    1
    23    12    13    2
    24    13    14    1
    25    14    15   ar
    26    15    16    1
    27    15    17   ar
    28    17    18   ar
    29    18    19   ar
    30    19    20   ar
    31    20    21    1
    32     4     5    1
    33     5     6    1
    34     4     7    1
    35     7     8    1
    36    34    24   ar
    37     6     1    1
    38    33    27   ar
    39     8     1    1
    40    36    32    1
    41    20    14   ar
    42    37    38    1
    43     9    10    1
@<TRIPOS>MOLECULE
*****
 38 43 0 0 0
SMALL
GASTEIGER

@<TRIPOS>ATOM
      1 C         138.5724  138.3269  163.2808 C.3     1  UNL1        0.0955
      2 C         138.2187  139.7161  163.7227 C.3     1  UNL1        0.0287
      3 C         138.2157  140.0607  165.1826 C.3     1  UNL1        0.0193
      4 C         138.5664  139.0163  166.2005 C.3     1  UNL1        0.0700
      5 C         138.9201  137.6272  165.7586 C.3     1  UNL1        0.0193
      6 C         138.9231  137.2825  164.2987 C.3     1  UNL1        0.0287
      7 C         138.5817  138.7801  165.4118 C.3     1  UNL1        0.1562
      8 O         138.5844  138.4685  164.0918 O.3     1  UNL1       -0.3571
      9 N         138.5635  139.3610  167.6604 N.3     1  UNL1       -0.2939
     10 H         138.5105  138.4795  168.1710 H       1  UNL1        0.1235
     11 C         139.7046  140.1352  168.2504 C.3     1  UNL1        0.0954
     12 C         140.5372  141.0265  167.3772 C.2     1  UNL1       -0.0089
     13 C         141.7536  140.4799  166.6905 C.2     1  UNL1        0.0013
     14 C         142.5861  141.3712  165.8173 C.ar    1  UNL1        0.0546
     15 C         142.5428  141.2132  164.3263 C.ar    1  UNL1        0.1422
     16 F         141.6669  140.1639  163.7085 F       1  UNL1       -0.2041
     17 C         143.3753  142.1046  163.4532 C.ar    1  UNL1        0.0298
     18 C         144.2511  143.1539  164.0711 C.ar    1  UNL1        0.0046
     19 C         144.2944  143.3119  165.5621 C.ar    1  UNL1        0.0298
     20 C         143.4619  142.4205  166.4353 C.ar    1  UNL1        0.1422
     21 F         143.5052  142.5785  167.9263 F       1  UNL1       -0.2041
     22 C         138.5753  137.9822  161.8209 C.3     1  UNL1        0.0604
     23 O         137.1993  140.6148  157.6426 O.2     1  UNL1       -0.2670
     24 C         138.6841  140.4357  157.7574 C.ar    1  UNL1        0.2611
     25 C         139.5916  141.0048  156.7074 C.ar    1  UNL1        0.0623
     26 C         141.0765  140.8257  156.8222 C.ar    1  UNL1        0.0254
     27 C         141.6538  140.0775  157.9870 C.ar    1  UNL1        0.0972
     28 N         143.0778  139.7497  158.3546 N.ar    1  UNL1       -0.2400
     29 C         143.5076  138.9821  159.5695 C.ar    1  UNL1        0.1282
     30 C         142.4806  138.4721  160.5365 C.ar    1  UNL1        0.1588
     31 F         142.9104  137.7044  161.7514 F       1  UNL1       -0.2027
     32 C         141.0238  138.7297  160.2887 C.ar    1  UNL1        0.0500
     33 C         140.7463  139.5084  159.0370 C.ar    1  UNL1        0.0806
     34 N         139.2615  139.6875  158.9222 N.ar    1  UNL1       -0.2915
     35 C         138.6214  139.0195  160.1029 C.3     1  UNL1        0.1402
     36 C         139.7105  138.4276  160.9474 C.3     1  UNL1        0.1335
     37 O         140.5624  137.7425  161.9746 O.3     1  UNL1       -0.3806
     38 H         139.9956  137.3657  162.6656 H       1  UNL1        0.2108
@<TRIPOS>BOND
     1    23    24    2
     2    24    25   ar
     3    25    26   ar
     4    26    27   ar
     5    27    28   ar
     6    28    29   ar
     7    29    30   ar
     8    30    31    1
     9    30    32   ar
    10    32    33   ar
    11    33    34   ar
    12    34    35    1
    13    35    36    1
    14    36    37    1
    15    36    22    1
    16    22     1    1
    17     1     2    1
    18     2     3    1
    19     3     4    1
    20     4     9    1
    21     9    11    1
    22    11    12    1
    23    12    13    2
    24    13    14    1
    25    14    15   ar
    26    15    16    1
    27    15    17   ar
    28    17    18   ar
    29    18    19   ar
    30    19    20   ar
    31    20    21    1
    32     4     5    1
    33     5     6    1
    34     4     7    1
    35     7     8    1
    36    34    24   ar
    37     6     1    1
    38    33    27   ar
    39     8     1    1
    40    36    32    1
    41    20    14   ar
    42    37    38    1
    43     9    10    1
@<TRIPOS>MOLECULE
*****
 38 43 0 0 0
SMALL
GASTEIGER

@<TRIPOS>ATOM
      1 C         143.4993  139.5676  165.4669 C.3     1  UNL1        0.0955
      2 C         142.9653  139.0087  166.7526 C.3     1  UNL1        0.0287
      3 C         142.6169  139.9303  167.8836 C.3     1  UNL1        0.0193
      4 C         142.8024  141.4108  167.7291 C.3     1  UNL1        0.0700
      5 C         143.3363  141.9696  166.4435 C.3     1  UNL1        0.0193
      6 C         143.6848  141.0480  165.3124 C.3     1  UNL1        0.0287
      7 C         143.0073  140.9454  167.0813 C.3     1  UNL1        0.1562
      8 O         143.3224  140.1121  166.0587 O.3     1  UNL1       -0.3571
      9 N         142.4541  142.3324  168.8601 N.3     1  UNL1       -0.2939
     10 H         143.0894  143.1280  168.7980 H       1  UNL1        0.1235
     11 C         141.0673  142.8933  168.9704 C.3     1  UNL1        0.0954
     12 C         140.0727  142.6559  167.8729 C.2     1  UNL1       -0.0089
     13 C         140.3365  143.1849  166.4943 C.2     1  UNL1        0.0013
     14 C         139.3419  142.9475  165.3968 C.ar    1  UNL1        0.0546
     15 C         139.1812  141.5746  164.8144 C.ar    1  UNL1        0.1422
     16 F         140.0150  140.4391  165.3294 F       1  UNL1       -0.2041
     17 C         138.1866  141.3372  163.7169 C.ar    1  UNL1        0.0298
     18 C         137.3528  142.4729  163.2019 C.ar    1  UNL1        0.0046
     19 C         137.5136  143.8457  163.7844 C.ar    1  UNL1        0.0298
     20 C         138.5082  144.0831  164.8818 C.ar    1  UNL1        0.1422
     21 F         138.6689  145.4560  165.4643 F       1  UNL1       -0.2041
     22 C         143.8477  138.6459  164.3359 C.3     1  UNL1        0.0604
     23 O         138.8598  137.5338  164.7446 O.2     1  UNL1       -0.2670
     24 C         139.2713  137.8648  163.3407 C.ar    1  UNL1        0.2611
     25 C         138.2556  137.8455  162.2371 C.ar    1  UNL1        0.0623
     26 C         138.6671  138.1765  160.8332 C.ar    1  UNL1        0.0254
     27 C         140.0943  138.5268  160.5328 C.ar    1  UNL1        0.0972
     28 N         140.7803  138.8952  159.2427 N.ar    1  UNL1       -0.2400
     29 C         142.2362  139.2247  159.0953 C.ar    1  UNL1        0.1282
     30 C         143.1354  139.2027  160.2957 C.ar    1  UNL1        0.1588
     31 F         144.5913  139.5323  160.1483 F       1  UNL1       -0.2027
     32 C         142.5787  138.8512  161.6435 C.ar    1  UNL1        0.0500
     33 C         141.1101  138.5461  161.6363 C.ar    1  UNL1        0.0806
     34 N         140.6986  138.2151  163.0403 N.ar    1  UNL1       -0.2915
     35 C         141.9129  138.3157  163.9151 C.3     1  UNL1        0.1402
     36 C         143.0749  138.7089  163.0519 C.3     1  UNL1        0.1335
     37 O         144.3984  139.0889  162.4570 O.3     1  UNL1       -0.3806
     38 H         145.0726  139.1079  163.1541 H       1  UNL1        0.2108
@<TRIPOS>BOND
     1    23    24    2
     2    24    25   ar
     3    25    26   ar
     4    26    27   ar
     5    27    28   ar
     6    28    29   ar
     7    29    30   ar
     8    30    31    1
     9    30    32   ar
    10    32    33   ar
    11    33    34   ar
    12    34    35    1
    13    35    36    1
    14    36    37    1
    15    36    22    1
    16    22     1    1
    17     1     2    1
    18     2     3    1
    19     3     4    1
    20     4     9    1
    21     9    11    1
    22    11    12    1
    23    12    13    2
    24    13    14    1
    25    14    15   ar
    26    15    16    1
    27    15    17   ar
    28    17    18   ar
    29    18    19   ar
    30    19    20   ar
    31    20    21    1
    32     4     5    1
    33     5     6    1
    34     4     7    1
    35     7     8    1
    36    34    24   ar
    37     6     1    1
    38    33    27   ar
    39     8     1    1
    40    36    32    1
    41    20    14   ar
    42    37    38    1
    43     9    10    1
@<TRIPOS>MOLECULE
*****
 38 43 0 0 0
SMALL
GASTEIGER

@<TRIPOS>ATOM
      1 C         137.8869  140.6679  162.0588 C.3     1  UNL1        0.0955
      2 C         137.6810  140.5285  163.5381 C.3     1  UNL1        0.0287
      3 C         137.6304  141.7503  164.4068 C.3     1  UNL1        0.0193
      4 C         137.7858  143.1116  163.7963 C.3     1  UNL1        0.0700
      5 C         137.9917  143.2510  162.3171 C.3     1  UNL1        0.0193
      6 C         138.0423  142.0292  161.4483 C.3     1  UNL1        0.0287
      7 C         137.8205  142.4712  163.2797 C.3     1  UNL1        0.1562
      8 O         137.8662  141.3665  162.4942 O.3     1  UNL1       -0.3571
      9 N         137.7352  144.3334  164.6650 N.3     1  UNL1       -0.2939
     10 H         137.0473  144.1475  165.3948 H       1  UNL1        0.1235
     11 C         138.9774  144.8160  165.3534 C.3     1  UNL1        0.0954
     12 C         140.2065  143.9563  165.3725 C.2     1  UNL1       -0.0089
     13 C         141.1690  143.9980  164.2229 C.2     1  UNL1        0.0013
     14 C         142.3980  143.1383  164.2421 C.ar    1  UNL1        0.0546
     15 C         142.2793  141.6557  164.0482 C.ar    1  UNL1        0.1422
     16 F         140.9315  141.0327  163.8352 F       1  UNL1       -0.2041
     17 C         143.5083  140.7959  164.0674 C.ar    1  UNL1        0.0298
     18 C         144.8561  141.4190  164.2805 C.ar    1  UNL1        0.0046
     19 C         144.9748  142.9016  164.4743 C.ar    1  UNL1        0.0298
     20 C         143.7457  143.7613  164.4551 C.ar    1  UNL1        0.1422
     21 F         143.8645  145.2440  164.6489 F       1  UNL1       -0.2041
     22 C         137.9375  139.4461  161.1901 C.3     1  UNL1        0.0604
     23 O         138.0776  139.6714  156.0704 O.2     1  UNL1       -0.2670
     24 C         139.3637  139.1838  156.6690 C.ar    1  UNL1        0.2611
     25 C         140.5161  138.8235  155.7790 C.ar    1  UNL1        0.0623
     26 C         141.8022  138.3359  156.3777 C.ar    1  UNL1        0.0254
     27 C         141.9358  138.2087  157.8662 C.ar    1  UNL1        0.0972
     28 N         143.0849  137.7554  158.7290 N.ar    1  UNL1       -0.2400
     29 C         143.0707  137.6800  160.2270 C.ar    1  UNL1        0.1282
     30 C         141.8389  138.0755  160.9861 C.ar    1  UNL1        0.1588
     31 F         141.8246  138.0001  162.4842 F       1  UNL1       -0.2027
     32 C         140.6213  138.5463  160.2472 C.ar    1  UNL1        0.0500
     33 C         140.7834  138.5690  158.7562 C.ar    1  UNL1        0.0806
     34 N         139.4973  139.0566  158.1576 N.ar    1  UNL1       -0.2915
     35 C         138.5405  139.3352  159.2787 C.3     1  UNL1        0.1402
     36 C         139.2352  139.0199  160.5702 C.3     1  UNL1        0.1335
     37 O         139.6586  138.7936  161.9913 O.3     1  UNL1       -0.3806
     38 H         138.9272  139.0207  162.5866 H       1  UNL1        0.2108
@<TRIPOS>BOND
     1    23    24    2
     2    24    25   ar
     3    25    26   ar
     4    26    27   ar
     5    27    28   ar
     6    28    29   ar
     7    29    30   ar
     8    30    31    1
     9    30    32   ar
    10    32    33   ar
    11    33    34   ar
    12    34    35    1
    13    35    36    1
    14    36    37    1
    15    36    22    1
    16    22     1    1
    17     1     2    1
    18     2     3    1
    19     3     4    1
    20     4     9    1
    21     9    11    1
    22    11    12    1
    23    12    13    2
    24    13    14    1
    25    14    15   ar
    26    15    16    1
    27    15    17   ar
    28    17    18   ar
    29    18    19   ar
    30    19    20   ar
    31    20    21    1
    32     4     5    1
    33     5     6    1
    34     4     7    1
    35     7     8    1
    36    34    24   ar
    37     6     1    1
    38    33    27   ar
    39     8     1    1
    40    36    32    1
    41    20    14   ar
    42    37    38    1
    43     9    10    1
@<TRIPOS>MOLECULE
*****
 38 43 0 0 0
SMALL
GASTEIGER

@<TRIPOS>ATOM
      1 C         138.7454  138.9676  164.1639 C.3     1  UNL1        0.0955
      2 C         138.0927  140.2795  163.8427 C.3     1  UNL1        0.0287
      3 C         137.5683  140.5379  162.4613 C.3     1  UNL1        0.0193
      4 C         137.6964  139.4845  161.4012 C.3     1  UNL1        0.0700
      5 C         138.3490  138.1727  161.7224 C.3     1  UNL1        0.0193
      6 C         138.8735  137.9142  163.1038 C.3     1  UNL1        0.0287
      7 C         137.9990  139.2970  162.1437 C.3     1  UNL1        0.1562
      8 O         138.4732  139.0633  163.3927 O.3     1  UNL1       -0.3571
      9 N         137.1720  139.7429  160.0198 N.3     1  UNL1       -0.2939
     10 H         136.4003  140.4030  160.1165 H       1  UNL1        0.1235
     11 C         138.0827  140.2933  158.9627 C.3     1  UNL1        0.0954
     12 C         139.2930  141.0879  159.3549 C.2     1  UNL1       -0.0089
     13 C         140.5999  140.3931  159.5984 C.2     1  UNL1        0.0013
     14 C         141.8102  141.1877  159.9906 C.ar    1  UNL1        0.0546
     15 C         141.9298  141.7343  161.3823 C.ar    1  UNL1        0.1422
     16 F         140.8393  141.4862  162.3818 F       1  UNL1       -0.2041
     17 C         143.1401  142.5289  161.7745 C.ar    1  UNL1        0.0298
     18 C         144.2307  142.7770  160.7749 C.ar    1  UNL1        0.0046
     19 C         144.1109  142.2304  159.3832 C.ar    1  UNL1        0.0298
     20 C         142.9007  141.4358  158.9910 C.ar    1  UNL1        0.1422
     21 F         142.7810  140.8892  157.5993 F       1  UNL1       -0.2041
     22 C         139.2698  138.7092  165.5453 C.3     1  UNL1        0.0604
     23 O         138.0631  140.0729  170.3377 O.2     1  UNL1       -0.2670
     24 C         139.3107  140.7387  169.8375 C.ar    1  UNL1        0.2611
     25 C         140.0593  141.6905  170.7227 C.ar    1  UNL1        0.0623
     26 C         141.3069  142.3564  170.2225 C.ar    1  UNL1        0.0254
     27 C         141.8059  142.0704  168.8372 C.ar    1  UNL1        0.0972
     28 N         143.0056  142.5837  168.0838 N.ar    1  UNL1       -0.2400
     29 C         143.3814  142.2017  166.6828 C.ar    1  UNL1        0.1282
     30 C         142.5315  141.2321  165.9162 C.ar    1  UNL1        0.1588
     31 F         142.9073  140.8501  164.5153 F       1  UNL1       -0.2027
     32 C         141.3058  140.6446  166.5507 C.ar    1  UNL1        0.0500
     33 C         141.0573  141.1186  167.9520 C.ar    1  UNL1        0.0806
     34 N         139.8097  140.4527  168.4522 N.ar    1  UNL1       -0.2915
     35 C         139.2872  139.5673  167.3600 C.3     1  UNL1        0.1402
     36 C         140.2117  139.6859  166.1848 C.3     1  UNL1        0.1335
     37 O         140.9395  139.6003  164.8759 O.3     1  UNL1       -0.3806
     38 H         140.4723  138.9886  164.2856 H       1  UNL1        0.2108
@<TRIPOS>BOND
     1    23    24    2
     2    24    25   ar
     3    25    26   ar
     4    26    27   ar
     5    27    28   ar
     6    28    29   ar
     7    29    30   ar
     8    30    31    1
     9    30    32   ar
    10    32    33   ar
    11    33    34   ar
    12    34    35    1
    13    35    36    1
    14    36    37    1
    15    36    22    1
    16    22     1    1
    17     1     2    1
    18     2     3    1
    19     3     4    1
    20     4     9    1
    21     9    11    1
    22    11    12    1
    23    12    13    2
    24    13    14    1
    25    14    15   ar
    26    15    16    1
    27    15    17   ar
    28    17    18   ar
    29    18    19   ar
    30    19    20   ar
    31    20    21    1
    32     4     5    1
    33     5     6    1
    34     4     7    1
    35     7     8    1
    36    34    24   ar
    37     6     1    1
    38    33    27   ar
    39     8     1    1
    40    36    32    1
    41    20    14   ar
    42    37    38    1
    43     9    10    1
