@<TRIPOS>MOLECULE
*****
 27 29 0 0 0
SMALL
GASTEIGER

@<TRIPOS>ATOM
      1 C         140.6817  139.4299  164.1419 C.cat   1  UNL1        0.4183
      2 N         140.7889  140.8371  164.6502 N.2     1  UNL1        0.0599
      3 N         140.9516  139.1320  162.6967 N.pl3   1  UNL1       -0.0867
      4 N         140.0153  138.4427  161.7489 N.2     1  UNL1       -0.1188
      5 C         140.6901  138.3557  160.4120 C.2     1  UNL1        0.1113
      6 C         142.0435  138.9912  160.5337 C.3     1  UNL1        0.0942
      7 C         142.2050  139.4709  161.9457 C.3     1  UNL1        0.1883
      8 C         143.4086  140.1673  162.5081 C.ar    1  UNL1        0.0140
      9 C         144.1776  139.5439  163.6350 C.ar    1  UNL1       -0.0012
     10 C         145.3812  140.2404  164.1973 C.ar    1  UNL1       -0.0002
     11 C         145.8159  141.5603  163.6327 C.ar    1  UNL1       -0.0000
     12 C         145.0470  142.1838  162.5057 C.ar    1  UNL1       -0.0002
     13 C         143.8434  141.4873  161.9434 C.ar    1  UNL1       -0.0012
     14 S         140.5190  141.1351  166.0953 S.O2    1  UNL1        0.1557
     15 O         141.8513  140.5529  166.4642 O.2     1  UNL1       -0.1324
     16 O         139.1868  141.7172  165.7265 O.2     1  UNL1       -0.1324
     17 C         140.2491  141.4331  167.5405 C.ar    1  UNL1        0.1446
     18 C         139.7250  140.3559  168.4432 C.ar    1  UNL1        0.0218
     19 C         139.4552  140.6540  169.8883 C.ar    1  UNL1        0.0023
     20 C         139.7093  142.0292  170.4306 C.ar    1  UNL1        0.0115
     21 C         140.2334  143.1064  169.5279 C.ar    1  UNL1        0.0591
     22 CL        140.4876  144.4816  170.0702 Cl      1  UNL1       -0.0822
     23 C         140.5033  142.8083  168.0828 C.ar    1  UNL1        0.0332
     24 N         140.3046  138.3208  165.0786 N.pl3   1  UNL1       -0.2217
     25 H         140.9898  137.9049  165.6503 H       1  UNL1        0.2454
     26 C         138.0306  138.1918  166.3286 C.3     1  UNL1        0.0436
     27 C         138.8835  137.8451  165.1443 C.3     1  UNL1        0.1638
@<TRIPOS>BOND
     1    26    27    1
     2    27    24    1
     3    24     1    1
     4     1     2    2
     5     2    14    1
     6    14    15    2
     7    14    16    2
     8    14    17    1
     9    17    18   ar
    10    18    19   ar
    11    19    20   ar
    12    20    21   ar
    13    21    22    1
    14    21    23   ar
    15     1     3    1
    16     3     4    1
    17     4     5    2
    18     5     6    1
    19     6     7    1
    20     7     8    1
    21     8     9   ar
    22     9    10   ar
    23    10    11   ar
    24    11    12   ar
    25    12    13   ar
    26    23    17   ar
    27     7     3    1
    28    13     8   ar
    29    24    25    1
@<TRIPOS>MOLECULE
*****
 27 29 0 0 0
SMALL
GASTEIGER

@<TRIPOS>ATOM
      1 C         139.8184  139.7727  164.9233 C.cat   1  UNL1        0.4183
      2 N         139.0599  140.2320  166.1331 N.2     1  UNL1        0.0599
      3 N         139.0783  139.3709  163.6819 N.pl3   1  UNL1       -0.0867
      4 N         138.7988  137.9655  163.2381 N.2     1  UNL1       -0.1188
      5 C         138.0355  138.0300  161.9483 C.2     1  UNL1        0.1113
      6 C         137.8433  139.4751  161.5952 C.3     1  UNL1        0.0942
      7 C         138.4878  140.3038  162.6666 C.3     1  UNL1        0.1883
      8 C         138.5337  141.8023  162.7143 C.ar    1  UNL1        0.0140
      9 C         139.4499  142.5543  161.7950 C.ar    1  UNL1       -0.0012
     10 C         139.4958  144.0528  161.8429 C.ar    1  UNL1       -0.0002
     11 C         138.6255  144.7994  162.8100 C.ar    1  UNL1       -0.0000
     12 C         137.7093  144.0474  163.7293 C.ar    1  UNL1       -0.0002
     13 C         137.6635  142.5489  163.6814 C.ar    1  UNL1       -0.0012
     14 S         139.7999  140.6338  167.3744 S.O2    1  UNL1        0.1557
     15 O         140.4241  141.7780  166.6320 O.2     1  UNL1       -0.1324
     16 O         139.1758  139.4896  168.1168 O.2     1  UNL1       -0.1324
     17 C         140.5400  141.0356  168.6158 C.ar    1  UNL1        0.1446
     18 C         139.8706  140.9332  169.9542 C.ar    1  UNL1        0.0218
     19 C         140.6107  141.3349  171.1955 C.ar    1  UNL1        0.0023
     20 C         142.0201  141.8390  171.0984 C.ar    1  UNL1        0.0115
     21 C         142.6894  141.9414  169.7600 C.ar    1  UNL1        0.0591
     22 CL        144.0988  142.4456  169.6629 Cl      1  UNL1       -0.0822
     23 C         141.9494  141.5397  168.5187 C.ar    1  UNL1        0.0332
     24 N         141.3169  139.7151  164.9548 N.pl3   1  UNL1       -0.2217
     25 H         141.8449  140.5211  164.7529 H       1  UNL1        0.2454
     26 C         143.2290  138.4428  166.1695 C.3     1  UNL1        0.0436
     27 C         142.0111  138.4293  165.2938 C.3     1  UNL1        0.1638
@<TRIPOS>BOND
     1    26    27    1
     2    27    24    1
     3    24     1    1
     4     1     2    2
     5     2    14    1
     6    14    15    2
     7    14    16    2
     8    14    17    1
     9    17    18   ar
    10    18    19   ar
    11    19    20   ar
    12    20    21   ar
    13    21    22    1
    14    21    23   ar
    15     1     3    1
    16     3     4    1
    17     4     5    2
    18     5     6    1
    19     6     7    1
    20     7     8    1
    21     8     9   ar
    22     9    10   ar
    23    10    11   ar
    24    11    12   ar
    25    12    13   ar
    26    23    17   ar
    27     7     3    1
    28    13     8   ar
    29    24    25    1
@<TRIPOS>MOLECULE
*****
 27 29 0 0 0
SMALL
GASTEIGER

@<TRIPOS>ATOM
      1 C         141.9846  139.2373  164.1652 C.cat   1  UNL1        0.4183
      2 N         141.8175  140.6509  164.6384 N.2     1  UNL1        0.0599
      3 N         142.5427  138.9645  162.7999 N.pl3   1  UNL1       -0.0867
      4 N         143.9636  138.6014  162.4847 N.2     1  UNL1       -0.1188
      5 C         144.0771  138.4193  161.0000 C.2     1  UNL1        0.1113
      6 C         142.7263  138.6699  160.3978 C.3     1  UNL1        0.0942
      7 C         141.7781  139.0068  161.5101 C.3     1  UNL1        0.1883
      8 C         140.3210  139.3295  161.3593 C.ar    1  UNL1        0.0140
      9 C         139.2978  138.2360  161.4449 C.ar    1  UNL1       -0.0012
     10 C         137.8408  138.5587  161.2941 C.ar    1  UNL1       -0.0002
     11 C         137.4068  139.9750  161.0576 C.ar    1  UNL1       -0.0000
     12 C         138.4299  141.0685  160.9719 C.ar    1  UNL1       -0.0002
     13 C         139.8870  140.7457  161.1228 C.ar    1  UNL1       -0.0012
     14 S         141.2594  140.9237  166.0037 S.O2    1  UNL1        0.1557
     15 O         139.9842  141.4139  165.3844 O.2     1  UNL1       -0.1324
     16 O         142.5346  140.4335  166.6229 O.2     1  UNL1       -0.1324
     17 C         140.7013  141.1966  167.3690 C.ar    1  UNL1        0.1446
     18 C         139.9787  140.1137  168.1141 C.ar    1  UNL1        0.0218
     19 C         139.4207  140.3866  169.4794 C.ar    1  UNL1        0.0023
     20 C         139.5852  141.7424  170.0996 C.ar    1  UNL1        0.0115
     21 C         140.3077  142.8253  169.3545 C.ar    1  UNL1        0.0591
     22 CL        140.4722  144.1812  169.9748 Cl      1  UNL1       -0.0822
     23 C         140.8657  142.5524  167.9892 C.ar    1  UNL1        0.0332
     24 N         141.5936  138.0966  165.0573 N.pl3   1  UNL1       -0.2217
     25 H         142.1629  137.8526  165.8225 H       1  UNL1        0.2454
     26 C         139.0059  137.8993  165.1789 C.3     1  UNL1        0.0436
     27 C         140.3351  137.3276  164.7835 C.3     1  UNL1        0.1638
@<TRIPOS>BOND
     1    26    27    1
     2    27    24    1
     3    24     1    1
     4     1     2    2
     5     2    14    1
     6    14    15    2
     7    14    16    2
     8    14    17    1
     9    17    18   ar
    10    18    19   ar
    11    19    20   ar
    12    20    21   ar
    13    21    22    1
    14    21    23   ar
    15     1     3    1
    16     3     4    1
    17     4     5    2
    18     5     6    1
    19     6     7    1
    20     7     8    1
    21     8     9   ar
    22     9    10   ar
    23    10    11   ar
    24    11    12   ar
    25    12    13   ar
    26    23    17   ar
    27     7     3    1
    28    13     8   ar
    29    24    25    1
@<TRIPOS>MOLECULE
*****
 27 29 0 0 0
SMALL
GASTEIGER

@<TRIPOS>ATOM
      1 C         139.4229  141.8682  163.6934 C.cat   1  UNL1        0.4183
      2 N         140.5945  141.0690  164.1817 N.2     1  UNL1        0.0599
      3 N         139.3074  142.2181  162.2393 N.pl3   1  UNL1       -0.0867
      4 N         138.1689  141.8548  161.3328 N.2     1  UNL1       -0.1188
      5 C         138.4680  142.4049  159.9697 C.2     1  UNL1        0.1113
      6 C         139.7915  143.1081  160.0338 C.3     1  UNL1        0.0942
      7 C         140.3102  142.9927  161.4365 C.3     1  UNL1        0.1883
      8 C         141.6045  143.5533  161.9469 C.ar    1  UNL1        0.0140
      9 C         141.5951  144.6646  162.9543 C.ar    1  UNL1       -0.0012
     10 C         142.8895  145.2252  163.4646 C.ar    1  UNL1       -0.0002
     11 C         144.1932  144.6745  162.9676 C.ar    1  UNL1       -0.0000
     12 C         144.2026  143.5632  161.9601 C.ar    1  UNL1       -0.0002
     13 C         142.9083  143.0026  161.4498 C.ar    1  UNL1       -0.0012
     14 S         140.7100  140.7190  165.6357 S.O2    1  UNL1        0.1557
     15 O         140.2389  139.3264  165.3380 O.2     1  UNL1       -0.1324
     16 O         141.1810  142.1117  165.9335 O.2     1  UNL1       -0.1324
     17 C         140.8254  140.3692  167.0898 C.ar    1  UNL1        0.1446
     18 C         142.1405  139.9140  167.6496 C.ar    1  UNL1        0.0218
     19 C         142.2559  139.5641  169.1036 C.ar    1  UNL1        0.0023
     20 C         141.0563  139.6694  169.9979 C.ar    1  UNL1        0.0115
     21 C         139.7412  140.1246  169.4382 C.ar    1  UNL1        0.0591
     22 CL        138.5416  140.2299  170.3324 Cl      1  UNL1       -0.0822
     23 C         139.6258  140.4745  167.9841 C.ar    1  UNL1        0.0332
     24 N         138.3667  142.3176  164.6591 N.pl3   1  UNL1       -0.2217
     25 H         137.9828  141.6779  165.3014 H       1  UNL1        0.2454
     26 C         138.7058  144.8060  165.3246 C.3     1  UNL1        0.0436
     27 C         137.8955  143.7416  164.6460 C.3     1  UNL1        0.1638
@<TRIPOS>BOND
     1    26    27    1
     2    27    24    1
     3    24     1    1
     4     1     2    2
     5     2    14    1
     6    14    15    2
     7    14    16    2
     8    14    17    1
     9    17    18   ar
    10    18    19   ar
    11    19    20   ar
    12    20    21   ar
    13    21    22    1
    14    21    23   ar
    15     1     3    1
    16     3     4    1
    17     4     5    2
    18     5     6    1
    19     6     7    1
    20     7     8    1
    21     8     9   ar
    22     9    10   ar
    23    10    11   ar
    24    11    12   ar
    25    12    13   ar
    26    23    17   ar
    27     7     3    1
    28    13     8   ar
    29    24    25    1
@<TRIPOS>MOLECULE
*****
 27 29 0 0 0
SMALL
GASTEIGER

@<TRIPOS>ATOM
      1 C         140.1907  140.0133  164.6003 C.cat   1  UNL1        0.4183
      2 N         140.7136  139.3219  165.8245 N.2     1  UNL1        0.0599
      3 N         140.2370  139.3208  163.2705 N.pl3   1  UNL1       -0.0867
      4 N         139.1208  138.5381  162.6449 N.2     1  UNL1       -0.1188
      5 C         139.6014  138.0230  161.3205 C.2     1  UNL1        0.1113
      6 C         141.0147  138.4875  161.1278 C.3     1  UNL1        0.0942
      7 C         141.4074  139.2896  162.3329 C.3     1  UNL1        0.1883
      8 C         142.7371  139.9453  162.5606 C.ar    1  UNL1        0.0140
      9 C         143.6679  139.4099  163.6079 C.ar    1  UNL1       -0.0012
     10 C         144.9976  140.0657  163.8355 C.ar    1  UNL1       -0.0002
     11 C         145.3966  141.2569  163.0158 C.ar    1  UNL1       -0.0000
     12 C         144.4658  141.7923  161.9685 C.ar    1  UNL1       -0.0002
     13 C         143.1361  141.1365  161.7409 C.ar    1  UNL1       -0.0012
     14 S         140.6674  140.0142  167.1543 S.O2    1  UNL1        0.1557
     15 O         139.2011  139.7160  167.2586 O.2     1  UNL1       -0.1324
     16 O         142.1337  140.3125  167.0500 O.2     1  UNL1       -0.1324
     17 C         140.6212  140.7067  168.4842 C.ar    1  UNL1        0.1446
     18 C         140.7170  139.9072  169.7497 C.ar    1  UNL1        0.0218
     19 C         140.6708  140.5997  171.0795 C.ar    1  UNL1        0.0023
     20 C         140.5289  142.0916  171.1437 C.ar    1  UNL1        0.0115
     21 C         140.4331  142.8910  169.8782 C.ar    1  UNL1        0.0591
     22 CL        140.2911  144.3829  169.9424 Cl      1  UNL1       -0.0822
     23 C         140.4792  142.1986  168.5484 C.ar    1  UNL1        0.0332
     24 N         139.6217  141.3971  164.7060 N.pl3   1  UNL1       -0.2217
     25 H         138.7440  141.5374  165.1293 H       1  UNL1        0.2454
     26 C         141.7686  142.8602  164.6802 C.3     1  UNL1        0.0436
     27 C         140.3899  142.5671  164.1667 C.3     1  UNL1        0.1638
@<TRIPOS>BOND
     1    26    27    1
     2    27    24    1
     3    24     1    1
     4     1     2    2
     5     2    14    1
     6    14    15    2
     7    14    16    2
     8    14    17    1
     9    17    18   ar
    10    18    19   ar
    11    19    20   ar
    12    20    21   ar
    13    21    22    1
    14    21    23   ar
    15     1     3    1
    16     3     4    1
    17     4     5    2
    18     5     6    1
    19     6     7    1
    20     7     8    1
    21     8     9   ar
    22     9    10   ar
    23    10    11   ar
    24    11    12   ar
    25    12    13   ar
    26    23    17   ar
    27     7     3    1
    28    13     8   ar
    29    24    25    1
@<TRIPOS>MOLECULE
*****
 27 29 0 0 0
SMALL
GASTEIGER

@<TRIPOS>ATOM
      1 C         140.1997  142.9491  165.7242 C.cat   1  UNL1        0.4183
      2 N         141.4737  143.0208  164.9356 N.2     1  UNL1        0.0599
      3 N         140.2221  142.4613  167.1426 N.pl3   1  UNL1       -0.0867
      4 N         140.4091  143.3112  168.3643 N.2     1  UNL1       -0.1188
      5 C         140.3640  142.4132  169.5650 C.2     1  UNL1        0.1113
      6 C         140.1490  141.0083  169.0853 C.3     1  UNL1        0.0942
      7 C         140.0613  141.0380  167.5881 C.3     1  UNL1        0.1883
      8 C         139.8499  139.8527  166.6936 C.ar    1  UNL1        0.0140
      9 C         140.9690  139.3594  165.8252 C.ar    1  UNL1       -0.0012
     10 C         140.7576  138.1740  164.9307 C.ar    1  UNL1       -0.0002
     11 C         139.4270  137.4820  164.9045 C.ar    1  UNL1       -0.0000
     12 C         138.3079  137.9753  165.7729 C.ar    1  UNL1       -0.0002
     13 C         138.5193  139.1606  166.6674 C.ar    1  UNL1       -0.0012
     14 S         141.4513  143.5085  163.5174 S.O2    1  UNL1        0.1557
     15 O         141.6723  142.1066  163.0318 O.2     1  UNL1       -0.1324
     16 O         141.2304  144.9104  164.0030 O.2     1  UNL1       -0.1324
     17 C         141.4290  143.9963  162.0990 C.ar    1  UNL1        0.1446
     18 C         140.4826  145.0881  161.6962 C.ar    1  UNL1        0.0218
     19 C         140.4604  145.5759  160.2780 C.ar    1  UNL1        0.0023
     20 C         141.3845  144.9719  159.2625 C.ar    1  UNL1        0.0115
     21 C         142.3308  143.8801  159.6653 C.ar    1  UNL1        0.0591
     22 CL        143.2550  143.2760  158.6498 Cl      1  UNL1       -0.0822
     23 C         142.3531  143.3923  161.0836 C.ar    1  UNL1        0.0332
     24 N         138.9034  143.3651  165.0946 N.pl3   1  UNL1       -0.2217
     25 H         138.6926  144.3208  164.9875 H       1  UNL1        0.2454
     26 C         138.3114  141.3764  163.5311 C.3     1  UNL1        0.0436
     27 C         137.9284  142.3251  164.6281 C.3     1  UNL1        0.1638
@<TRIPOS>BOND
     1    26    27    1
     2    27    24    1
     3    24     1    1
     4     1     2    2
     5     2    14    1
     6    14    15    2
     7    14    16    2
     8    14    17    1
     9    17    18   ar
    10    18    19   ar
    11    19    20   ar
    12    20    21   ar
    13    21    22    1
    14    21    23   ar
    15     1     3    1
    16     3     4    1
    17     4     5    2
    18     5     6    1
    19     6     7    1
    20     7     8    1
    21     8     9   ar
    22     9    10   ar
    23    10    11   ar
    24    11    12   ar
    25    12    13   ar
    26    23    17   ar
    27     7     3    1
    28    13     8   ar
    29    24    25    1
@<TRIPOS>MOLECULE
*****
 27 29 0 0 0
SMALL
GASTEIGER

@<TRIPOS>ATOM
      1 C         139.0956  140.3750  164.1223 C.cat   1  UNL1        0.4183
      2 N         140.2647  140.1058  165.0228 N.2     1  UNL1        0.0599
      3 N         139.1259  139.9130  162.6955 N.pl3   1  UNL1       -0.0867
      4 N         138.6522  138.5828  162.1893 N.2     1  UNL1       -0.1188
      5 C         138.8687  138.5477  160.7054 C.2     1  UNL1        0.1113
      6 C         139.4762  139.8562  160.2945 C.3     1  UNL1        0.0942
      7 C         139.6352  140.7000  161.5245 C.3     1  UNL1        0.1883
      8 C         140.2036  142.0872  161.5747 C.ar    1  UNL1        0.0140
      9 C         141.5168  142.3354  162.2555 C.ar    1  UNL1       -0.0012
     10 C         142.0852  143.7227  162.3057 C.ar    1  UNL1       -0.0002
     11 C         141.3403  144.8617  161.6750 C.ar    1  UNL1       -0.0000
     12 C         140.0270  144.6134  160.9941 C.ar    1  UNL1       -0.0002
     13 C         139.4586  143.2262  160.9440 C.ar    1  UNL1       -0.0012
     14 S         140.2344  140.5677  166.4495 S.O2    1  UNL1        0.1557
     15 O         139.2055  139.5232  166.7659 O.2     1  UNL1       -0.1324
     16 O         141.2634  141.6123  166.1331 O.2     1  UNL1       -0.1324
     17 C         140.2042  141.0298  167.8763 C.ar    1  UNL1        0.1446
     18 C         140.0248  140.0339  168.9835 C.ar    1  UNL1        0.0218
     19 C         139.9946  140.4960  170.4102 C.ar    1  UNL1        0.0023
     20 C         140.1438  141.9539  170.7297 C.ar    1  UNL1        0.0115
     21 C         140.3233  142.9498  169.6225 C.ar    1  UNL1        0.0591
     22 CL        140.4726  144.4078  169.9420 Cl      1  UNL1       -0.0822
     23 C         140.3535  142.4877  168.1958 C.ar    1  UNL1        0.0332
     24 N         137.8963  141.1062  164.6485 N.pl3   1  UNL1       -0.2217
     25 H         137.2501  140.6400  165.2267 H       1  UNL1        0.2454
     26 C         138.7094  143.5738  164.6697 C.3     1  UNL1        0.0436
     27 C         137.6816  142.5478  164.2939 C.3     1  UNL1        0.1638
@<TRIPOS>BOND
     1    26    27    1
     2    27    24    1
     3    24     1    1
     4     1     2    2
     5     2    14    1
     6    14    15    2
     7    14    16    2
     8    14    17    1
     9    17    18   ar
    10    18    19   ar
    11    19    20   ar
    12    20    21   ar
    13    21    22    1
    14    21    23   ar
    15     1     3    1
    16     3     4    1
    17     4     5    2
    18     5     6    1
    19     6     7    1
    20     7     8    1
    21     8     9   ar
    22     9    10   ar
    23    10    11   ar
    24    11    12   ar
    25    12    13   ar
    26    23    17   ar
    27     7     3    1
    28    13     8   ar
    29    24    25    1
@<TRIPOS>MOLECULE
*****
 27 29 0 0 0
SMALL
GASTEIGER

@<TRIPOS>ATOM
      1 C         140.0233  140.2660  163.6919 C.cat   1  UNL1        0.4183
      2 N         141.4741  140.4397  164.0310 N.2     1  UNL1        0.0599
      3 N         139.6018  140.1017  162.2616 N.pl3   1  UNL1       -0.0867
      4 N         139.4166  138.7992  161.5412 N.2     1  UNL1       -0.1188
      5 C         138.9920  139.1035  160.1351 C.2     1  UNL1        0.1113
      6 C         138.9147  140.5942  159.9866 C.3     1  UNL1        0.0942
      7 C         139.2917  141.2111  161.3009 C.3     1  UNL1        0.1883
      8 C         139.3484  142.6795  161.6016 C.ar    1  UNL1        0.0140
      9 C         140.4401  143.5238  161.0139 C.ar    1  UNL1       -0.0012
     10 C         140.4968  144.9923  161.3148 C.ar    1  UNL1       -0.0002
     11 C         139.4619  145.6164  162.2033 C.ar    1  UNL1       -0.0000
     12 C         138.3703  144.7721  162.7910 C.ar    1  UNL1       -0.0002
     13 C         138.3135  143.3037  162.4902 C.ar    1  UNL1       -0.0012
     14 S         141.8955  140.6040  165.4612 S.O2    1  UNL1        0.1557
     15 O         141.7772  142.0930  165.3250 O.2     1  UNL1       -0.1324
     16 O         142.0138  139.1149  165.5974 O.2     1  UNL1       -0.1324
     17 C         142.3170  140.7682  166.8914 C.ar    1  UNL1        0.1446
     18 C         142.8040  142.0995  167.3816 C.ar    1  UNL1        0.0218
     19 C         143.2254  142.2637  168.8118 C.ar    1  UNL1        0.0023
     20 C         143.1599  141.0966  169.7517 C.ar    1  UNL1        0.0115
     21 C         142.6729  139.7653  169.2615 C.ar    1  UNL1        0.0591
     22 CL        142.6073  138.5981  170.2014 Cl      1  UNL1       -0.0822
     23 C         142.2514  139.6011  167.8313 C.ar    1  UNL1        0.0332
     24 N         138.9939  140.2567  164.7829 N.pl3   1  UNL1       -0.2217
     25 H         138.6925  141.1044  165.1826 H       1  UNL1        0.2454
     26 C         138.0353  138.7947  166.7048 C.3     1  UNL1        0.0436
     27 C         138.4237  138.9557  165.2649 C.3     1  UNL1        0.1638
@<TRIPOS>BOND
     1    26    27    1
     2    27    24    1
     3    24     1    1
     4     1     2    2
     5     2    14    1
     6    14    15    2
     7    14    16    2
     8    14    17    1
     9    17    18   ar
    10    18    19   ar
    11    19    20   ar
    12    20    21   ar
    13    21    22    1
    14    21    23   ar
    15     1     3    1
    16     3     4    1
    17     4     5    2
    18     5     6    1
    19     6     7    1
    20     7     8    1
    21     8     9   ar
    22     9    10   ar
    23    10    11   ar
    24    11    12   ar
    25    12    13   ar
    26    23    17   ar
    27     7     3    1
    28    13     8   ar
    29    24    25    1
@<TRIPOS>MOLECULE
*****
 27 29 0 0 0
SMALL
GASTEIGER

@<TRIPOS>ATOM
      1 C         140.7059  140.3176  163.5201 C.cat   1  UNL1        0.4183
      2 N         141.8807  140.3932  164.4497 N.2     1  UNL1        0.0599
      3 N         140.9022  140.5139  162.0460 N.pl3   1  UNL1       -0.0867
      4 N         140.4502  139.5784  160.9641 N.2     1  UNL1       -0.1188
      5 C         140.8535  140.1665  159.6444 C.2     1  UNL1        0.1113
      6 C         141.5547  141.4655  159.9107 C.3     1  UNL1        0.0942
      7 C         141.5848  141.6802  161.3950 C.3     1  UNL1        0.1883
      8 C         142.1910  142.8549  162.1038 C.ar    1  UNL1        0.0140
      9 C         141.3096  143.8385  162.8149 C.ar    1  UNL1       -0.0012
     10 C         141.9159  145.0132  163.5237 C.ar    1  UNL1       -0.0002
     11 C         143.4037  145.2044  163.5215 C.ar    1  UNL1       -0.0000
     12 C         144.2851  144.2208  162.8105 C.ar    1  UNL1       -0.0002
     13 C         143.6788  143.0461  162.1016 C.ar    1  UNL1       -0.0012
     14 S         141.6845  140.1969  165.9238 S.O2    1  UNL1        0.1557
     15 O         142.1560  138.7785  165.7977 O.2     1  UNL1       -0.1324
     16 O         141.2130  141.6152  166.0499 O.2     1  UNL1       -0.1324
     17 C         141.4883  140.0006  167.3979 C.ar    1  UNL1        0.1446
     18 C         142.6212  139.5029  168.2456 C.ar    1  UNL1        0.0218
     19 C         142.4250  139.3067  169.7197 C.ar    1  UNL1        0.0023
     20 C         141.0958  139.6081  170.3461 C.ar    1  UNL1        0.0115
     21 C         139.9628  140.1058  169.4984 C.ar    1  UNL1        0.0591
     22 CL        138.6336  140.4073  170.1247 Cl      1  UNL1       -0.0822
     23 C         140.1591  140.3021  168.0243 C.ar    1  UNL1        0.0332
     24 N         139.3349  140.0458  164.0646 N.pl3   1  UNL1       -0.2217
     25 H         138.7622  140.7933  164.3516 H       1  UNL1        0.2454
     26 C         138.5587  138.0380  165.5194 C.3     1  UNL1        0.0436
     27 C         138.8366  138.6350  164.1716 C.3     1  UNL1        0.1638
@<TRIPOS>BOND
     1    26    27    1
     2    27    24    1
     3    24     1    1
     4     1     2    2
     5     2    14    1
     6    14    15    2
     7    14    16    2
     8    14    17    1
     9    17    18   ar
    10    18    19   ar
    11    19    20   ar
    12    20    21   ar
    13    21    22    1
    14    21    23   ar
    15     1     3    1
    16     3     4    1
    17     4     5    2
    18     5     6    1
    19     6     7    1
    20     7     8    1
    21     8     9   ar
    22     9    10   ar
    23    10    11   ar
    24    11    12   ar
    25    12    13   ar
    26    23    17   ar
    27     7     3    1
    28    13     8   ar
    29    24    25    1
