@<TRIPOS>MOLECULE
*****
 32 35 0 0 0
SMALL
GASTEIGER

@<TRIPOS>ATOM
      1 N         142.7212  138.0562  162.5832 N.3     1  UNL1       -0.2863
      2 H         143.2831  138.5882  161.9186 H       1  UNL1        0.1240
      3 C         142.6498  138.8718  163.8401 C.3     1  UNL1        0.1341
      4 C         143.0764  138.4245  165.2068 C.3     1  UNL1        0.0471
      5 C         142.8295  139.5542  166.1623 C.3     1  UNL1        0.1031
      6 N         142.2505  140.6996  165.3860 N.am    1  UNL1       -0.2252
      7 C         141.8523  142.0328  165.9465 C.2     1  UNL1        0.2563
      8 O         141.2839  143.0867  165.0432 O.2     1  UNL1       -0.2694
      9 C         142.1394  140.2779  163.9508 C.2     1  UNL1        0.2459
     10 O         141.6107  141.1153  162.8242 O.2     1  UNL1       -0.2730
     11 C         142.0227  142.3120  167.4105 C.ar    1  UNL1        0.0736
     12 C         143.3976  142.3790  168.0062 C.ar    1  UNL1        0.1034
     13 N         143.5680  142.6582  169.4701 N.ar    1  UNL1       -0.2417
     14 C         142.3634  142.8705  170.3383 C.ar    1  UNL1        0.1055
     15 C         140.9883  142.8035  169.7425 C.ar    1  UNL1        0.0539
     16 BR        139.7837  143.0158  170.6107 Br      1  UNL1       -0.0474
     17 C         140.8179  142.5243  168.2787 C.ar    1  UNL1        0.0143
     18 C         141.4608  137.6659  161.8698 C.3     1  UNL1        0.1151
     19 N         139.4718  138.9808  160.6615 N.ar    1  UNL1       -0.3070
     20 C         139.3622  139.8566  159.4487 C.ar    1  UNL1        0.1786
     21 N         140.7253  139.9677  158.8323 N.ar    1  UNL1       -0.2226
     22 C         141.6773  139.1606  159.6643 C.ar    1  UNL1        0.1147
     23 C         140.9027  138.5506  160.7948 C.ar    1  UNL1        0.0739
     24 C         138.3480  138.6017  161.5798 C.3     1  UNL1        0.1340
     25 C         138.7415  139.2699  166.0125 C.ar    1  UNL1        0.0684
     26 C         138.3866  140.4143  165.1101 C.ar    1  UNL1        0.0100
     27 C         138.2555  140.1916  163.6325 C.ar    1  UNL1       -0.0017
     28 C         138.4791  138.8245  163.0574 C.ar    1  UNL1        0.0005
     29 C         138.8340  137.6801  163.9598 C.ar    1  UNL1       -0.0017
     30 C         138.9651  137.9028  165.4373 C.ar    1  UNL1        0.0100
     31 N         139.0038  139.7154  168.9676 N.1     1  UNL1       -0.1908
     32 C         138.8726  139.4927  167.4900 C.1     1  UNL1        0.1004
@<TRIPOS>BOND
     1    31    32    3
     2    32    25    1
     3    25    26   ar
     4    26    27   ar
     5    27    28   ar
     6    28    24    1
     7    24    19    1
     8    19    20   ar
     9    20    21   ar
    10    21    22   ar
    11    22    23   ar
    12    23    18    1
    13    18     1    1
    14     1     3    1
    15     3     4    1
    16     4     5    1
    17     5     6    1
    18     6     7   am
    19     7     8    2
    20     7    11    1
    21    11    12   ar
    22    12    13   ar
    23    13    14   ar
    24    14    15   ar
    25    15    16    1
    26    15    17   ar
    27     6     9   am
    28     9    10    2
    29    28    29   ar
    30    29    30   ar
    31    30    25   ar
    32    23    19   ar
    33     9     3    1
    34    17    11   ar
    35     1     2    1
@<TRIPOS>MOLECULE
*****
 32 35 0 0 0
SMALL
GASTEIGER

@<TRIPOS>ATOM
      1 N         137.0429  140.4712  161.9972 N.3     1  UNL1       -0.2863
      2 H         136.2491  139.9550  162.3764 H       1  UNL1        0.1240
      3 C         137.9292  140.8160  163.1571 C.3     1  UNL1        0.1341
      4 C         138.1137  139.9966  164.3999 C.3     1  UNL1        0.0471
      5 C         139.0852  140.7151  165.2888 C.3     1  UNL1        0.1031
      6 N         139.5010  141.9784  164.5954 N.am    1  UNL1       -0.2252
      7 C         140.4625  143.0000  165.1262 C.2     1  UNL1        0.2563
      8 O         140.7835  144.2205  164.3154 O.2     1  UNL1       -0.2694
      9 C         138.7866  142.0409  163.2780 C.2     1  UNL1        0.2459
     10 O         138.9083  143.1359  162.2600 O.2     1  UNL1       -0.2730
     11 C         141.1031  142.8012  166.4680 C.ar    1  UNL1        0.0736
     12 C         142.5540  142.4321  166.5590 C.ar    1  UNL1        0.1034
     13 N         143.1946  142.2332  167.9007 N.ar    1  UNL1       -0.2417
     14 C         142.3842  142.4036  169.1513 C.ar    1  UNL1        0.1055
     15 C         140.9331  142.7728  169.0603 C.ar    1  UNL1        0.0539
     16 BR        140.1227  142.9431  170.3110 Br      1  UNL1       -0.0474
     17 C         140.2926  142.9716  167.7186 C.ar    1  UNL1        0.0143
     18 C         137.5820  139.6599  160.8565 C.3     1  UNL1        0.1151
     19 N         140.0965  139.5804  159.9532 N.ar    1  UNL1       -0.3070
     20 C         140.9171  140.4254  159.0244 C.ar    1  UNL1        0.1786
     21 N         140.0532  141.5502  158.5357 N.ar    1  UNL1       -0.2226
     22 C         138.6986  141.4003  159.1626 C.ar    1  UNL1        0.1147
     23 C         138.7254  140.1829  160.0386 C.ar    1  UNL1        0.0739
     24 C         140.5647  138.3492  160.6706 C.3     1  UNL1        0.1340
     25 C         142.1134  138.6526  164.8849 C.ar    1  UNL1        0.0684
     26 C         142.3738  139.7611  163.9085 C.ar    1  UNL1        0.0100
     27 C         141.8576  139.6599  162.5038 C.ar    1  UNL1       -0.0017
     28 C         141.0810  138.4503  162.0754 C.ar    1  UNL1        0.0005
     29 C         140.8205  137.3418  163.0518 C.ar    1  UNL1       -0.0017
     30 C         141.3367  137.4429  164.4565 C.ar    1  UNL1        0.0100
     31 N         143.1458  138.8548  167.6944 N.1     1  UNL1       -0.1908
     32 C         142.6296  138.7537  166.2896 C.1     1  UNL1        0.1004
@<TRIPOS>BOND
     1    31    32    3
     2    32    25    1
     3    25    26   ar
     4    26    27   ar
     5    27    28   ar
     6    28    24    1
     7    24    19    1
     8    19    20   ar
     9    20    21   ar
    10    21    22   ar
    11    22    23   ar
    12    23    18    1
    13    18     1    1
    14     1     3    1
    15     3     4    1
    16     4     5    1
    17     5     6    1
    18     6     7   am
    19     7     8    2
    20     7    11    1
    21    11    12   ar
    22    12    13   ar
    23    13    14   ar
    24    14    15   ar
    25    15    16    1
    26    15    17   ar
    27     6     9   am
    28     9    10    2
    29    28    29   ar
    30    29    30   ar
    31    30    25   ar
    32    23    19   ar
    33     9     3    1
    34    17    11   ar
    35     1     2    1
@<TRIPOS>MOLECULE
*****
 32 35 0 0 0
SMALL
GASTEIGER

@<TRIPOS>ATOM
      1 N         138.8020  137.4337  163.3571 N.3     1  UNL1       -0.2863
      2 H         139.5641  136.8303  163.0481 H       1  UNL1        0.1240
      3 C         139.2846  138.1458  164.5860 C.3     1  UNL1        0.1341
      4 C         138.4238  138.6662  165.6987 C.3     1  UNL1        0.0471
      5 C         139.3199  139.3044  166.7183 C.3     1  UNL1        0.1031
      6 N         140.7345  139.1784  166.2357 N.am    1  UNL1       -0.2252
      7 C         141.9564  139.6804  166.9462 C.2     1  UNL1        0.2563
      8 O         143.3129  139.4808  166.3378 O.2     1  UNL1       -0.2694
      9 C         140.7127  138.4624  164.9179 C.2     1  UNL1        0.2459
     10 O         141.9090  138.1225  164.0792 O.2     1  UNL1       -0.2730
     11 C         141.8219  140.3822  168.2652 C.ar    1  UNL1        0.0736
     12 C         142.3176  139.7242  169.5187 C.ar    1  UNL1        0.1034
     13 N         142.1832  140.4259  170.8376 N.ar    1  UNL1       -0.2417
     14 C         141.5530  141.7855  170.9030 C.ar    1  UNL1        0.1055
     15 C         141.0573  142.4435  169.6494 C.ar    1  UNL1        0.0539
     16 BR        140.4271  143.8031  169.7148 Br      1  UNL1       -0.0474
     17 C         141.1917  141.7418  168.3305 C.ar    1  UNL1        0.0143
     18 C         138.3598  138.2208  162.1592 C.3     1  UNL1        0.1151
     19 N         139.2980  140.1559  160.5717 N.ar    1  UNL1       -0.3070
     20 C         140.5285  140.3365  159.7331 C.ar    1  UNL1        0.1786
     21 N         141.3710  139.1034  159.8746 N.ar    1  UNL1       -0.2226
     22 C         140.6611  138.1608  160.8006 C.ar    1  UNL1        0.1147
     23 C         139.3800  138.8112  161.2315 C.ar    1  UNL1        0.0739
     24 C         138.1816  141.1461  160.7238 C.3     1  UNL1        0.1340
     25 C         138.1001  143.9182  164.2677 C.ar    1  UNL1        0.0684
     26 C         137.6159  142.5056  164.4091 C.ar    1  UNL1        0.0100
     27 C         137.6430  141.5816  163.2279 C.ar    1  UNL1       -0.0017
     28 C         138.1544  142.0701  161.9051 C.ar    1  UNL1        0.0005
     29 C         138.6387  143.4827  161.7636 C.ar    1  UNL1       -0.0017
     30 C         138.6115  144.4068  162.9449 C.ar    1  UNL1        0.0100
     31 N         138.0458  145.7663  166.6302 N.1     1  UNL1       -0.1908
     32 C         138.0729  144.8423  165.4489 C.1     1  UNL1        0.1004
@<TRIPOS>BOND
     1    31    32    3
     2    32    25    1
     3    25    26   ar
     4    26    27   ar
     5    27    28   ar
     6    28    24    1
     7    24    19    1
     8    19    20   ar
     9    20    21   ar
    10    21    22   ar
    11    22    23   ar
    12    23    18    1
    13    18     1    1
    14     1     3    1
    15     3     4    1
    16     4     5    1
    17     5     6    1
    18     6     7   am
    19     7     8    2
    20     7    11    1
    21    11    12   ar
    22    12    13   ar
    23    13    14   ar
    24    14    15   ar
    25    15    16    1
    26    15    17   ar
    27     6     9   am
    28     9    10    2
    29    28    29   ar
    30    29    30   ar
    31    30    25   ar
    32    23    19   ar
    33     9     3    1
    34    17    11   ar
    35     1     2    1
@<TRIPOS>MOLECULE
*****
 32 35 0 0 0
SMALL
GASTEIGER

@<TRIPOS>ATOM
      1 N         144.6817  141.6153  162.8863 N.3     1  UNL1       -0.2863
      2 H         145.0813  142.5520  162.8290 H       1  UNL1        0.1240
      3 C         144.0437  141.4988  164.2388 C.3     1  UNL1        0.1341
      4 C         143.3091  142.5872  164.9638 C.3     1  UNL1        0.0471
      5 C         142.8396  142.0345  166.2769 C.3     1  UNL1        0.1031
      6 N         143.2841  140.6045  166.3633 N.am    1  UNL1       -0.2252
      7 C         143.0291  139.6697  167.5084 C.2     1  UNL1        0.2563
      8 O         143.5379  138.2597  167.4530 O.2     1  UNL1       -0.2694
      9 C         144.0282  140.2734  165.1038 C.2     1  UNL1        0.2459
     10 O         144.6482  138.9494  164.7681 O.2     1  UNL1       -0.2730
     11 C         142.2654  140.1449  168.7089 C.ar    1  UNL1        0.0736
     12 C         142.9902  140.7955  169.8495 C.ar    1  UNL1        0.1034
     13 N         142.2266  141.2707  171.0499 N.ar    1  UNL1       -0.2417
     14 C         140.7381  141.0953  171.1096 C.ar    1  UNL1        0.1055
     15 C         140.0133  140.4446  169.9689 C.ar    1  UNL1        0.0539
     16 BR        138.5248  140.2691  170.0286 Br      1  UNL1       -0.0474
     17 C         140.7769  139.9694  168.7685 C.ar    1  UNL1        0.0143
     18 C         143.8572  141.4197  161.6486 C.3     1  UNL1        0.1151
     19 N         141.9082  139.5952  161.5173 N.ar    1  UNL1       -0.3070
     20 C         141.8151  138.1748  161.0441 C.ar    1  UNL1        0.1786
     21 N         143.1689  137.7621  160.5471 N.ar    1  UNL1       -0.2226
     22 C         144.0987  138.9275  160.7130 C.ar    1  UNL1        0.1147
     23 C         143.3195  140.0603  161.3126 C.ar    1  UNL1        0.0739
     24 C         140.7869  140.4077  162.0938 C.3     1  UNL1        0.1340
     25 C         138.4433  138.8391  165.6006 C.ar    1  UNL1        0.0684
     26 C         138.8064  137.9219  164.4706 C.ar    1  UNL1        0.0100
     27 C         139.5876  138.4448  163.3016 C.ar    1  UNL1       -0.0017
     28 C         140.0057  139.8848  163.2627 C.ar    1  UNL1        0.0005
     29 C         139.6426  140.8020  164.3927 C.ar    1  UNL1       -0.0017
     30 C         138.8614  140.2791  165.5617 C.ar    1  UNL1        0.0100
     31 N         136.8810  137.7933  167.9384 N.1     1  UNL1       -0.1908
     32 C         137.6622  138.3162  166.7695 C.1     1  UNL1        0.1004
@<TRIPOS>BOND
     1    31    32    3
     2    32    25    1
     3    25    26   ar
     4    26    27   ar
     5    27    28   ar
     6    28    24    1
     7    24    19    1
     8    19    20   ar
     9    20    21   ar
    10    21    22   ar
    11    22    23   ar
    12    23    18    1
    13    18     1    1
    14     1     3    1
    15     3     4    1
    16     4     5    1
    17     5     6    1
    18     6     7   am
    19     7     8    2
    20     7    11    1
    21    11    12   ar
    22    12    13   ar
    23    13    14   ar
    24    14    15   ar
    25    15    16    1
    26    15    17   ar
    27     6     9   am
    28     9    10    2
    29    28    29   ar
    30    29    30   ar
    31    30    25   ar
    32    23    19   ar
    33     9     3    1
    34    17    11   ar
    35     1     2    1
@<TRIPOS>MOLECULE
*****
 32 35 0 0 0
SMALL
GASTEIGER

@<TRIPOS>ATOM
      1 N         144.7504  142.3619  163.0453 N.3     1  UNL1       -0.2863
      2 H         145.2810  143.2257  163.1578 H       1  UNL1        0.1240
      3 C         144.1016  142.0769  164.3674 C.3     1  UNL1        0.1341
      4 C         143.5597  143.0991  165.3222 C.3     1  UNL1        0.0471
      5 C         143.0041  142.3736  166.5117 C.3     1  UNL1        0.1031
      6 N         143.2026  140.9032  166.2921 N.am    1  UNL1       -0.2252
      7 C         142.7944  139.8083  167.2326 C.2     1  UNL1        0.2563
      8 O         143.0596  138.3756  166.8760 O.2     1  UNL1       -0.2694
      9 C         143.8809  140.7198  164.9669 C.2     1  UNL1        0.2459
     10 O         144.2701  139.4093  164.3495 O.2     1  UNL1       -0.2730
     11 C         142.1210  140.1460  168.5298 C.ar    1  UNL1        0.0736
     12 C         142.9374  140.6053  169.7012 C.ar    1  UNL1        0.1034
     13 N         142.2641  140.9430  170.9984 N.ar    1  UNL1       -0.2417
     14 C         140.7743  140.8215  171.1239 C.ar    1  UNL1        0.1055
     15 C         139.9578  140.3623  169.9524 C.ar    1  UNL1        0.0539
     16 BR        138.4681  140.2407  170.0779 Br      1  UNL1       -0.0474
     17 C         140.6312  140.0245  168.6552 C.ar    1  UNL1        0.0143
     18 C         143.9067  142.5289  161.8163 C.3     1  UNL1        0.1151
     19 N         141.2729  142.2487  162.1763 N.ar    1  UNL1       -0.3070
     20 C         140.1027  143.1861  162.2197 C.ar    1  UNL1        0.1786
     21 N         140.6161  144.5788  162.0027 N.ar    1  UNL1       -0.2226
     22 C         142.1036  144.5021  161.8252 C.ar    1  UNL1        0.1147
     23 C         142.5095  143.0621  161.9325 C.ar    1  UNL1        0.0739
     24 C         141.2165  140.7596  162.3468 C.3     1  UNL1        0.1340
     25 C         138.6489  138.9600  165.5747 C.ar    1  UNL1        0.0684
     26 C         139.9016  138.2613  165.1361 C.ar    1  UNL1        0.0100
     27 C         140.7575  138.8612  164.0601 C.ar    1  UNL1       -0.0017
     28 C         140.3606  140.1597  163.4228 C.ar    1  UNL1        0.0005
     29 C         139.1079  140.8584  163.8614 C.ar    1  UNL1       -0.0017
     30 C         138.2521  140.2586  164.9374 C.ar    1  UNL1        0.0100
     31 N         136.9372  137.7604  167.7267 N.1     1  UNL1       -0.1908
     32 C         137.7931  138.3602  166.6507 C.1     1  UNL1        0.1004
@<TRIPOS>BOND
     1    31    32    3
     2    32    25    1
     3    25    26   ar
     4    26    27   ar
     5    27    28   ar
     6    28    24    1
     7    24    19    1
     8    19    20   ar
     9    20    21   ar
    10    21    22   ar
    11    22    23   ar
    12    23    18    1
    13    18     1    1
    14     1     3    1
    15     3     4    1
    16     4     5    1
    17     5     6    1
    18     6     7   am
    19     7     8    2
    20     7    11    1
    21    11    12   ar
    22    12    13   ar
    23    13    14   ar
    24    14    15   ar
    25    15    16    1
    26    15    17   ar
    27     6     9   am
    28     9    10    2
    29    28    29   ar
    30    29    30   ar
    31    30    25   ar
    32    23    19   ar
    33     9     3    1
    34    17    11   ar
    35     1     2    1
@<TRIPOS>MOLECULE
*****
 32 35 0 0 0
SMALL
GASTEIGER

@<TRIPOS>ATOM
      1 N         141.7060  137.2466  162.4072 N.3     1  UNL1       -0.2863
      2 H         142.5803  136.7296  162.5004 H       1  UNL1        0.1240
      3 C         141.4691  137.9365  163.7179 C.3     1  UNL1        0.1341
      4 C         142.5255  138.3619  164.6940 C.3     1  UNL1        0.0471
      5 C         141.8434  139.0103  165.8620 C.3     1  UNL1        0.1031
      6 N         140.3653  138.9857  165.6077 N.am    1  UNL1       -0.2252
      7 C         139.3048  139.5292  166.5186 C.2     1  UNL1        0.2563
      8 O         137.8596  139.4326  166.1287 O.2     1  UNL1       -0.2694
      9 C         140.1340  138.3220  164.2826 C.2     1  UNL1        0.2459
     10 O         138.8014  138.0854  163.6357 O.2     1  UNL1       -0.2730
     11 C         139.6895  140.1695  167.8195 C.ar    1  UNL1        0.0736
     12 C         138.8510  139.9449  169.0427 C.ar    1  UNL1        0.1034
     13 N         139.2356  140.5851  170.3435 N.ar    1  UNL1       -0.2417
     14 C         140.4587  141.4499  170.4211 C.ar    1  UNL1        0.1055
     15 C         141.2973  141.6745  169.1978 C.ar    1  UNL1        0.0539
     16 BR        142.5204  142.5393  169.2753 Br      1  UNL1       -0.0474
     17 C         140.9127  141.0343  167.8969 C.ar    1  UNL1        0.0143
     18 C         141.8106  138.0501  161.1448 C.3     1  UNL1        0.1151
     19 N         141.7796  140.7151  161.3491 N.ar    1  UNL1       -0.3070
     20 C         142.8202  141.7946  161.3031 C.ar    1  UNL1        0.1786
     21 N         144.1547  141.1432  161.0909 N.ar    1  UNL1       -0.2226
     22 C         143.9389  139.6612  161.0058 C.ar    1  UNL1        0.1147
     23 C         142.4711  139.3967  161.1653 C.ar    1  UNL1        0.0739
     24 C         140.3064  140.9184  161.5445 C.3     1  UNL1        0.1340
     25 C         138.8285  143.8785  164.5946 C.ar    1  UNL1        0.0684
     26 C         139.9869  142.9825  164.9190 C.ar    1  UNL1        0.0100
     27 C         140.4795  141.9958  163.9023 C.ar    1  UNL1       -0.0017
     28 C         139.8138  141.9051  162.5612 C.ar    1  UNL1        0.0005
     29 C         138.6554  142.8011  162.2368 C.ar    1  UNL1       -0.0017
     30 C         138.1628  143.7879  163.2535 C.ar    1  UNL1        0.0100
     31 N         137.8433  145.8520  166.6280 N.1     1  UNL1       -0.1908
     32 C         138.3359  144.8653  165.6113 C.1     1  UNL1        0.1004
@<TRIPOS>BOND
     1    31    32    3
     2    32    25    1
     3    25    26   ar
     4    26    27   ar
     5    27    28   ar
     6    28    24    1
     7    24    19    1
     8    19    20   ar
     9    20    21   ar
    10    21    22   ar
    11    22    23   ar
    12    23    18    1
    13    18     1    1
    14     1     3    1
    15     3     4    1
    16     4     5    1
    17     5     6    1
    18     6     7   am
    19     7     8    2
    20     7    11    1
    21    11    12   ar
    22    12    13   ar
    23    13    14   ar
    24    14    15   ar
    25    15    16    1
    26    15    17   ar
    27     6     9   am
    28     9    10    2
    29    28    29   ar
    30    29    30   ar
    31    30    25   ar
    32    23    19   ar
    33     9     3    1
    34    17    11   ar
    35     1     2    1
@<TRIPOS>MOLECULE
*****
 32 35 0 0 0
SMALL
GASTEIGER

@<TRIPOS>ATOM
      1 N         137.7204  143.2712  162.0568 N.3     1  UNL1       -0.2863
      2 H         136.8033  142.8326  161.9731 H       1  UNL1        0.1240
      3 C         138.2896  142.8364  163.3747 C.3     1  UNL1        0.1341
      4 C         138.7637  143.7421  164.4724 C.3     1  UNL1        0.0471
      5 C         139.2517  142.8848  165.6024 C.3     1  UNL1        0.1031
      6 N         139.0791  141.4493  165.2031 N.am    1  UNL1       -0.2252
      7 C         139.4382  140.2537  166.0347 C.2     1  UNL1        0.2563
      8 O         139.2071  138.8714  165.4998 O.2     1  UNL1       -0.2694
      9 C         138.4845  141.4193  163.8264 C.2     1  UNL1        0.2459
     10 O         138.1445  140.1884  163.0394 O.2     1  UNL1       -0.2730
     11 C         140.0284  140.4402  167.4011 C.ar    1  UNL1        0.0736
     12 C         139.3248  139.8854  168.6040 C.ar    1  UNL1        0.1034
     13 N         139.9149  140.0719  169.9703 N.ar    1  UNL1       -0.2417
     14 C         141.2086  140.8133  170.1337 C.ar    1  UNL1        0.1055
     15 C         141.9122  141.3682  168.9308 C.ar    1  UNL1        0.0539
     16 BR        143.2058  142.1095  169.0942 Br      1  UNL1       -0.0474
     17 C         141.3221  141.1816  167.5644 C.ar    1  UNL1        0.0143
     18 C         138.4599  142.9748  160.7859 C.3     1  UNL1        0.1151
     19 N         141.0792  142.4497  160.6927 N.ar    1  UNL1       -0.3070
     20 C         142.3199  143.2722  160.5085 C.ar    1  UNL1        0.1786
     21 N         141.9065  144.7051  160.3469 N.ar    1  UNL1       -0.2226
     22 C         140.4101  144.7680  160.4311 C.ar    1  UNL1        0.1147
     23 C         139.8988  143.3742  160.6448 C.ar    1  UNL1        0.0739
     24 C         141.0277  140.9636  160.8900 C.3     1  UNL1        0.1340
     25 C         142.7770  139.1254  164.6063 C.ar    1  UNL1        0.0684
     26 C         142.8192  140.6124  164.4138 C.ar    1  UNL1        0.0100
     27 C         142.2361  141.2251  163.1750 C.ar    1  UNL1       -0.0017
     28 C         141.6108  140.3509  162.1288 C.ar    1  UNL1        0.0005
     29 C         141.5686  138.8639  162.3213 C.ar    1  UNL1       -0.0017
     30 C         142.1517  138.2512  163.5601 C.ar    1  UNL1        0.0100
     31 N         143.9431  137.9000  167.0839 N.1     1  UNL1       -0.1908
     32 C         143.3601  138.5127  165.8451 C.1     1  UNL1        0.1004
@<TRIPOS>BOND
     1    31    32    3
     2    32    25    1
     3    25    26   ar
     4    26    27   ar
     5    27    28   ar
     6    28    24    1
     7    24    19    1
     8    19    20   ar
     9    20    21   ar
    10    21    22   ar
    11    22    23   ar
    12    23    18    1
    13    18     1    1
    14     1     3    1
    15     3     4    1
    16     4     5    1
    17     5     6    1
    18     6     7   am
    19     7     8    2
    20     7    11    1
    21    11    12   ar
    22    12    13   ar
    23    13    14   ar
    24    14    15   ar
    25    15    16    1
    26    15    17   ar
    27     6     9   am
    28     9    10    2
    29    28    29   ar
    30    29    30   ar
    31    30    25   ar
    32    23    19   ar
    33     9     3    1
    34    17    11   ar
    35     1     2    1
@<TRIPOS>MOLECULE
*****
 32 35 0 0 0
SMALL
GASTEIGER

@<TRIPOS>ATOM
      1 N         139.0281  139.5373  167.8413 N.3     1  UNL1       -0.2863
      2 H         138.2299  140.1420  168.0352 H       1  UNL1        0.1240
      3 C         139.2406  139.5635  166.3566 C.3     1  UNL1        0.1341
      4 C         138.2119  139.9197  165.3248 C.3     1  UNL1        0.0471
      5 C         138.8548  139.8145  163.9737 C.3     1  UNL1        0.1031
      6 N         140.2809  139.3934  164.1705 N.am    1  UNL1       -0.2252
      7 C         141.2911  139.1671  163.0851 C.2     1  UNL1        0.2563
      8 O         142.6873  138.7455  163.4360 O.2     1  UNL1       -0.2694
      9 C         140.5194  139.2382  165.6432 C.2     1  UNL1        0.2459
     10 O         141.8100  138.8296  166.2892 O.2     1  UNL1       -0.2730
     11 C         140.9053  139.3624  161.6487 C.ar    1  UNL1        0.0736
     12 C         140.1011  138.3139  160.9390 C.ar    1  UNL1        0.1034
     13 N         139.7152  138.5092  159.5027 N.ar    1  UNL1       -0.2417
     14 C         140.1337  139.7529  158.7761 C.ar    1  UNL1        0.1055
     15 C         140.9380  140.8015  159.4859 C.ar    1  UNL1        0.0539
     16 BR        141.3564  142.0452  158.7593 Br      1  UNL1       -0.0474
     17 C         141.3238  140.6062  160.9222 C.ar    1  UNL1        0.0143
     18 C         140.1301  139.9654  168.7645 C.3     1  UNL1        0.1151
     19 N         140.8651  142.5339  168.8497 N.ar    1  UNL1       -0.3070
     20 C         140.5611  143.6949  169.7496 C.ar    1  UNL1        0.1786
     21 N         139.6232  143.2190  170.8194 N.ar    1  UNL1       -0.2226
     22 C         139.3477  141.7640  170.5805 C.ar    1  UNL1        0.1147
     23 C         140.1151  141.3406  169.3632 C.ar    1  UNL1        0.0739
     24 C         141.7615  142.5615  167.6474 C.3     1  UNL1        0.1340
     25 C         140.0256  143.3056  163.5629 C.ar    1  UNL1        0.0684
     26 C         141.4404  142.8266  163.7007 C.ar    1  UNL1        0.0100
     27 C         142.0190  142.5786  165.0622 C.ar    1  UNL1       -0.0017
     28 C         141.1829  142.8095  166.2859 C.ar    1  UNL1        0.0005
     29 C         139.7682  143.2886  166.1482 C.ar    1  UNL1       -0.0017
     30 C         139.1895  143.5366  164.7867 C.ar    1  UNL1        0.0100
     31 N         138.8684  143.8017  160.8400 N.1     1  UNL1       -0.1908
     32 C         139.4470  143.5537  162.2015 C.1     1  UNL1        0.1004
@<TRIPOS>BOND
     1    31    32    3
     2    32    25    1
     3    25    26   ar
     4    26    27   ar
     5    27    28   ar
     6    28    24    1
     7    24    19    1
     8    19    20   ar
     9    20    21   ar
    10    21    22   ar
    11    22    23   ar
    12    23    18    1
    13    18     1    1
    14     1     3    1
    15     3     4    1
    16     4     5    1
    17     5     6    1
    18     6     7   am
    19     7     8    2
    20     7    11    1
    21    11    12   ar
    22    12    13   ar
    23    13    14   ar
    24    14    15   ar
    25    15    16    1
    26    15    17   ar
    27     6     9   am
    28     9    10    2
    29    28    29   ar
    30    29    30   ar
    31    30    25   ar
    32    23    19   ar
    33     9     3    1
    34    17    11   ar
    35     1     2    1
@<TRIPOS>MOLECULE
*****
 32 35 0 0 0
SMALL
GASTEIGER

@<TRIPOS>ATOM
      1 N         144.2954  139.0335  161.0790 N.3     1  UNL1       -0.2863
      2 H         144.9027  139.7459  160.6738 H       1  UNL1        0.1240
      3 C         143.8060  139.5760  162.3890 C.3     1  UNL1        0.1341
      4 C         143.4813  138.7693  163.6112 C.3     1  UNL1        0.0471
      5 C         143.0300  139.7151  164.6844 C.3     1  UNL1        0.1031
      6 N         143.0759  141.1063  164.1255 N.am    1  UNL1       -0.2252
      7 C         142.7069  142.3629  164.8568 C.2     1  UNL1        0.2563
      8 O         142.8036  143.6898  164.1640 O.2     1  UNL1       -0.2694
      9 C         143.5555  141.0203  162.7069 C.2     1  UNL1        0.2459
     10 O         143.7503  142.1758  161.7704 O.2     1  UNL1       -0.2730
     11 C         142.2411  142.2926  166.2810 C.ar    1  UNL1        0.0736
     12 C         140.7806  142.1382  166.5856 C.ar    1  UNL1        0.1034
     13 N         140.3148  142.0679  168.0097 N.ar    1  UNL1       -0.2417
     14 C         141.3097  142.1520  169.1292 C.ar    1  UNL1        0.1055
     15 C         142.7703  142.3064  168.8245 C.ar    1  UNL1        0.0539
     16 BR        143.7651  142.3905  169.9440 Br      1  UNL1       -0.0474
     17 C         143.2361  142.3767  167.4004 C.ar    1  UNL1        0.0143
     18 C         143.3130  138.6452  160.0139 C.3     1  UNL1        0.1151
     19 N         140.7563  139.4215  159.9398 N.ar    1  UNL1       -0.3070
     20 C         140.0207  140.5960  159.3657 C.ar    1  UNL1        0.1786
     21 N         141.0235  141.4898  158.6981 N.ar    1  UNL1       -0.2226
     22 C         142.3789  140.8678  158.8597 C.ar    1  UNL1        0.1147
     23 C         142.2138  139.5896  159.6271 C.ar    1  UNL1        0.0739
     24 C         140.1424  138.2796  160.6942 C.3     1  UNL1        0.1340
     25 C         138.9999  138.7935  165.0163 C.ar    1  UNL1        0.0684
     26 C         138.5532  139.7999  163.9977 C.ar    1  UNL1        0.0100
     27 C         138.9341  139.6286  162.5570 C.ar    1  UNL1       -0.0017
     28 C         139.7616  138.4509  162.1349 C.ar    1  UNL1        0.0005
     29 C         140.2082  137.4445  163.1535 C.ar    1  UNL1       -0.0017
     30 C         139.8274  137.6158  164.5942 C.ar    1  UNL1        0.0100
     31 N         138.2382  139.1361  167.8977 N.1     1  UNL1       -0.1908
     32 C         138.6191  138.9648  166.4570 C.1     1  UNL1        0.1004
@<TRIPOS>BOND
     1    31    32    3
     2    32    25    1
     3    25    26   ar
     4    26    27   ar
     5    27    28   ar
     6    28    24    1
     7    24    19    1
     8    19    20   ar
     9    20    21   ar
    10    21    22   ar
    11    22    23   ar
    12    23    18    1
    13    18     1    1
    14     1     3    1
    15     3     4    1
    16     4     5    1
    17     5     6    1
    18     6     7   am
    19     7     8    2
    20     7    11    1
    21    11    12   ar
    22    12    13   ar
    23    13    14   ar
    24    14    15   ar
    25    15    16    1
    26    15    17   ar
    27     6     9   am
    28     9    10    2
    29    28    29   ar
    30    29    30   ar
    31    30    25   ar
    32    23    19   ar
    33     9     3    1
    34    17    11   ar
    35     1     2    1
