@<TRIPOS>MOLECULE
*****
 27 30 0 0 0
SMALL
GASTEIGER

@<TRIPOS>ATOM
      1 C         142.3187  138.5773  163.6025 C.ar    1  UNL1        0.2342
      2 N         142.8517  139.5958  164.5662 N.ar    1  UNL1       -0.2031
      3 C         142.0315  140.0068  165.7529 C.ar    1  UNL1        0.1325
      4 C         140.6782  139.3993  165.9760 C.ar    1  UNL1        0.0491
      5 C         139.8579  139.8103  167.1627 C.ar    1  UNL1        0.0041
      6 C         138.5047  139.2029  167.3857 C.ar    1  UNL1        0.0002
      7 C         137.9718  138.1844  166.4221 C.ar    1  UNL1        0.0015
      8 C         138.7920  137.7734  165.2354 C.ar    1  UNL1        0.0193
      9 C         140.1452  138.3809  165.0123 C.ar    1  UNL1        0.0863
     10 N         140.9655  137.9699  163.8256 N.ar    1  UNL1       -0.2177
     11 C         140.3910  140.8288  168.1264 C.ar    1  UNL1        0.0001
     12 C         140.0744  142.2822  167.9329 C.ar    1  UNL1        0.0000
     13 C         140.6074  143.3007  168.8965 C.ar    1  UNL1        0.0000
     14 C         141.4570  142.8657  170.0537 C.ar    1  UNL1        0.0000
     15 C         141.7736  141.4123  170.2471 C.ar    1  UNL1        0.0000
     16 C         141.2406  140.3939  169.2835 C.ar    1  UNL1        0.0000
     17 N         143.9591  137.7553  161.2291 N.1     1  UNL1       -0.1876
     18 C         143.1389  138.1663  162.4158 C.1     1  UNL1        0.1400
     19 N         142.5644  141.0253  166.7166 N.pl3   1  UNL1       -0.3131
     20 H         142.2980  140.9934  167.6638 H       1  UNL1        0.1485
     21 C         143.5033  142.0923  166.2370 C.3     1  UNL1        0.1348
     22 C         143.0164  143.1503  165.2918 C.ar    1  UNL1        0.0788
     23 C         144.0005  144.0300  164.5794 C.ar    1  UNL1        0.0165
     24 C         143.5136  145.0880  163.6341 C.ar    1  UNL1        0.0029
     25 C         142.0426  145.2663  163.4012 C.ar    1  UNL1        0.0207
     26 C         141.0584  144.3865  164.1137 C.ar    1  UNL1        0.0985
     27 N         141.5454  143.3285  165.0589 N.ar    1  UNL1       -0.2464
@<TRIPOS>BOND
     1    17    18    3
     2    18     1    1
     3     1     2   ar
     4     2     3   ar
     5     3    19    1
     6    19    21    1
     7    21    22    1
     8    22    23   ar
     9    23    24   ar
    10    24    25   ar
    11    25    26   ar
    12    26    27   ar
    13     3     4   ar
    14     4     5   ar
    15     5    11    1
    16    11    12   ar
    17    12    13   ar
    18    13    14   ar
    19    14    15   ar
    20    15    16   ar
    21     5     6   ar
    22     6     7   ar
    23     7     8   ar
    24     8     9   ar
    25     9    10   ar
    26    10     1   ar
    27    27    22   ar
    28     9     4   ar
    29    16    11   ar
    30    19    20    1
@<TRIPOS>MOLECULE
*****
 27 30 0 0 0
SMALL
GASTEIGER

@<TRIPOS>ATOM
      1 C         141.3595  138.6153  161.2169 C.ar    1  UNL1        0.2342
      2 N         141.2140  140.0987  161.3858 N.ar    1  UNL1       -0.2031
      3 C         140.4318  140.6488  162.5415 C.ar    1  UNL1        0.1325
      4 C         139.7952  139.7155  163.5283 C.ar    1  UNL1        0.0491
      5 C         139.0130  140.2656  164.6840 C.ar    1  UNL1        0.0041
      6 C         138.3764  139.3324  165.6708 C.ar    1  UNL1        0.0002
      7 C         138.5219  137.8491  165.5019 C.ar    1  UNL1        0.0015
      8 C         139.3041  137.2990  164.3462 C.ar    1  UNL1        0.0193
      9 C         139.9407  138.2322  163.3594 C.ar    1  UNL1        0.0863
     10 N         140.7228  137.6821  162.2037 N.ar    1  UNL1       -0.2177
     11 C         138.8676  141.7490  164.8529 C.ar    1  UNL1        0.0001
     12 C         139.8384  142.5050  165.7108 C.ar    1  UNL1        0.0000
     13 C         139.6929  143.9884  165.8797 C.ar    1  UNL1        0.0000
     14 C         138.5765  144.7157  165.1907 C.ar    1  UNL1        0.0000
     15 C         137.6057  143.9597  164.3328 C.ar    1  UNL1        0.0000
     16 C         137.7512  142.4764  164.1640 C.ar    1  UNL1        0.0000
     17 N         142.9238  137.5152  158.9055 N.1     1  UNL1       -0.1876
     18 C         142.1416  138.0653  160.0612 C.1     1  UNL1        0.1400
     19 N         140.2863  142.1321  162.7105 N.pl3   1  UNL1       -0.3131
     20 H         139.4364  142.5098  163.0333 H       1  UNL1        0.1485
     21 C         141.4359  143.0401  162.3876 C.3     1  UNL1        0.1348
     22 C         142.8002  142.7477  162.9381 C.ar    1  UNL1        0.0788
     23 C         143.1195  143.0787  164.3658 C.ar    1  UNL1        0.0165
     24 C         144.4839  142.7862  164.9164 C.ar    1  UNL1        0.0029
     25 C         145.5288  142.1629  164.0392 C.ar    1  UNL1        0.0207
     26 C         145.2094  141.8319  162.6114 C.ar    1  UNL1        0.0985
     27 N         143.8451  142.1243  162.0609 N.ar    1  UNL1       -0.2464
@<TRIPOS>BOND
     1    17    18    3
     2    18     1    1
     3     1     2   ar
     4     2     3   ar
     5     3    19    1
     6    19    21    1
     7    21    22    1
     8    22    23   ar
     9    23    24   ar
    10    24    25   ar
    11    25    26   ar
    12    26    27   ar
    13     3     4   ar
    14     4     5   ar
    15     5    11    1
    16    11    12   ar
    17    12    13   ar
    18    13    14   ar
    19    14    15   ar
    20    15    16   ar
    21     5     6   ar
    22     6     7   ar
    23     7     8   ar
    24     8     9   ar
    25     9    10   ar
    26    10     1   ar
    27    27    22   ar
    28     9     4   ar
    29    16    11   ar
    30    19    20    1
@<TRIPOS>MOLECULE
*****
 27 30 0 0 0
SMALL
GASTEIGER

@<TRIPOS>ATOM
      1 C         140.4824  140.9557  169.3504 C.ar    1  UNL1        0.2342
      2 N         141.6477  141.2095  168.4406 N.ar    1  UNL1       -0.2031
      3 C         141.6607  140.6270  167.0583 C.ar    1  UNL1        0.1325
      4 C         140.5085  139.7907  166.5860 C.ar    1  UNL1        0.0491
      5 C         140.5216  139.2082  165.2037 C.ar    1  UNL1        0.0041
      6 C         139.3694  138.3720  164.7313 C.ar    1  UNL1        0.0002
      7 C         138.2042  138.1182  165.6412 C.ar    1  UNL1        0.0015
      8 C         138.1912  138.7007  167.0234 C.ar    1  UNL1        0.0193
      9 C         139.3433  139.5369  167.4958 C.ar    1  UNL1        0.0863
     10 N         139.3302  140.1194  168.8780 N.ar    1  UNL1       -0.2177
     11 C         141.6868  139.4621  164.2939 C.ar    1  UNL1        0.0001
     12 C         142.9251  138.6234  164.4093 C.ar    1  UNL1        0.0000
     13 C         144.0904  138.8773  163.4994 C.ar    1  UNL1        0.0000
     14 C         144.0173  139.9697  162.4742 C.ar    1  UNL1        0.0000
     15 C         142.7790  140.8084  162.3588 C.ar    1  UNL1        0.0000
     16 C         141.6138  140.5546  163.2686 C.ar    1  UNL1        0.0000
     17 N         140.4563  142.1206  172.1149 N.1     1  UNL1       -0.1876
     18 C         140.4693  141.5381  170.7326 C.1     1  UNL1        0.1400
     19 N         142.8259  140.8808  166.1485 N.pl3   1  UNL1       -0.3131
     20 H         143.1752  140.1554  165.5820 H       1  UNL1        0.1485
     21 C         143.4590  142.2399  166.1018 C.3     1  UNL1        0.1348
     22 C         142.9412  143.2761  165.1489 C.ar    1  UNL1        0.0788
     23 C         143.8969  144.0460  164.2863 C.ar    1  UNL1        0.0165
     24 C         143.3791  145.0823  163.3333 C.ar    1  UNL1        0.0029
     25 C         141.9057  145.3486  163.2430 C.ar    1  UNL1        0.0207
     26 C         140.9501  144.5787  164.1056 C.ar    1  UNL1        0.0985
     27 N         141.4678  143.5425  165.0585 N.ar    1  UNL1       -0.2464
@<TRIPOS>BOND
     1    17    18    3
     2    18     1    1
     3     1     2   ar
     4     2     3   ar
     5     3    19    1
     6    19    21    1
     7    21    22    1
     8    22    23   ar
     9    23    24   ar
    10    24    25   ar
    11    25    26   ar
    12    26    27   ar
    13     3     4   ar
    14     4     5   ar
    15     5    11    1
    16    11    12   ar
    17    12    13   ar
    18    13    14   ar
    19    14    15   ar
    20    15    16   ar
    21     5     6   ar
    22     6     7   ar
    23     7     8   ar
    24     8     9   ar
    25     9    10   ar
    26    10     1   ar
    27    27    22   ar
    28     9     4   ar
    29    16    11   ar
    30    19    20    1
@<TRIPOS>MOLECULE
*****
 27 30 0 0 0
SMALL
GASTEIGER

@<TRIPOS>ATOM
      1 C         141.0035  144.7458  162.5428 C.ar    1  UNL1        0.2342
      2 N         140.5644  144.1863  163.8635 N.ar    1  UNL1       -0.2031
      3 C         141.4653  143.2564  164.6209 C.ar    1  UNL1        0.1325
      4 C         142.8053  142.8860  164.0575 C.ar    1  UNL1        0.0491
      5 C         143.7062  141.9560  164.8149 C.ar    1  UNL1        0.0041
      6 C         145.0461  141.5856  164.2517 C.ar    1  UNL1        0.0002
      7 C         145.4851  142.1450  162.9310 C.ar    1  UNL1        0.0015
      8 C         144.5842  143.0750  162.1736 C.ar    1  UNL1        0.0193
      9 C         143.2443  143.4454  162.7369 C.ar    1  UNL1        0.0863
     10 N         142.3434  144.3753  161.9795 N.ar    1  UNL1       -0.2177
     11 C         143.2671  141.3966  166.1357 C.ar    1  UNL1        0.0001
     12 C         143.3173  142.2522  167.3666 C.ar    1  UNL1        0.0000
     13 C         142.8783  141.6927  168.6874 C.ar    1  UNL1        0.0000
     14 C         142.3889  140.2776  168.7770 C.ar    1  UNL1        0.0000
     15 C         142.3387  139.4220  167.5460 C.ar    1  UNL1        0.0000
     16 C         142.7777  139.9815  166.2253 C.ar    1  UNL1        0.0000
     17 N         139.2017  146.6056  161.0280 N.1     1  UNL1       -0.1876
     18 C         140.1026  145.6757  161.7854 C.1     1  UNL1        0.1400
     19 N         141.0263  142.6969  165.9415 N.pl3   1  UNL1       -0.3131
     20 H         141.6344  142.7263  166.7152 H       1  UNL1        0.1485
     21 C         139.6607  142.0926  166.0835 C.3     1  UNL1        0.1348
     22 C         139.4013  140.7008  165.5880 C.ar    1  UNL1        0.0788
     23 C         138.7646  139.6888  166.4938 C.ar    1  UNL1        0.0165
     24 C         138.5052  138.2969  165.9984 C.ar    1  UNL1        0.0029
     25 C         138.8824  137.9171  164.5971 C.ar    1  UNL1        0.0207
     26 C         139.5191  138.9292  163.6913 C.ar    1  UNL1        0.0985
     27 N         139.7785  140.3210  164.1868 N.ar    1  UNL1       -0.2464
@<TRIPOS>BOND
     1    17    18    3
     2    18     1    1
     3     1     2   ar
     4     2     3   ar
     5     3    19    1
     6    19    21    1
     7    21    22    1
     8    22    23   ar
     9    23    24   ar
    10    24    25   ar
    11    25    26   ar
    12    26    27   ar
    13     3     4   ar
    14     4     5   ar
    15     5    11    1
    16    11    12   ar
    17    12    13   ar
    18    13    14   ar
    19    14    15   ar
    20    15    16   ar
    21     5     6   ar
    22     6     7   ar
    23     7     8   ar
    24     8     9   ar
    25     9    10   ar
    26    10     1   ar
    27    27    22   ar
    28     9     4   ar
    29    16    11   ar
    30    19    20    1
@<TRIPOS>MOLECULE
*****
 27 30 0 0 0
SMALL
GASTEIGER

@<TRIPOS>ATOM
      1 C         138.5623  140.0360  169.9822 C.ar    1  UNL1        0.2342
      2 N         138.8126  139.5853  168.5735 N.ar    1  UNL1       -0.2031
      3 C         140.0534  140.0254  167.8546 C.ar    1  UNL1        0.1325
      4 C         141.0438  140.9160  168.5443 C.ar    1  UNL1        0.0491
      5 C         142.2846  141.3561  167.8254 C.ar    1  UNL1        0.0041
      6 C         143.2751  142.2467  168.5151 C.ar    1  UNL1        0.0002
      7 C         143.0247  142.6973  169.9237 C.ar    1  UNL1        0.0015
      8 C         141.7840  142.2573  170.6426 C.ar    1  UNL1        0.0193
      9 C         140.7935  141.3667  169.9529 C.ar    1  UNL1        0.0863
     10 N         139.5527  140.9267  170.6719 N.ar    1  UNL1       -0.2177
     11 C         142.5349  140.9054  166.4167 C.ar    1  UNL1        0.0001
     12 C         143.2106  139.5913  166.1586 C.ar    1  UNL1        0.0000
     13 C         143.4609  139.1406  164.7499 C.ar    1  UNL1        0.0000
     14 C         143.0355  140.0041  163.5994 C.ar    1  UNL1        0.0000
     15 C         142.3598  141.3182  163.8577 C.ar    1  UNL1        0.0000
     16 C         142.1096  141.7688  165.2663 C.ar    1  UNL1        0.0000
     17 N         136.0807  139.1560  171.4200 N.1     1  UNL1       -0.1876
     18 C         137.3215  139.5960  170.7011 C.1     1  UNL1        0.1400
     19 N         140.3037  139.5747  166.4460 N.pl3   1  UNL1       -0.3131
     20 H         141.2262  139.4910  166.1125 H       1  UNL1        0.1485
     21 C         139.1484  139.2516  165.5453 C.3     1  UNL1        0.1348
     22 C         138.6285  140.2864  164.5920 C.ar    1  UNL1        0.0788
     23 C         138.5664  141.7260  165.0084 C.ar    1  UNL1        0.0165
     24 C         138.0464  142.7608  164.0550 C.ar    1  UNL1        0.0029
     25 C         137.5885  142.3559  162.6852 C.ar    1  UNL1        0.0207
     26 C         137.6506  140.9161  162.2688 C.ar    1  UNL1        0.0985
     27 N         138.1706  139.8814  163.2222 N.ar    1  UNL1       -0.2464
@<TRIPOS>BOND
     1    17    18    3
     2    18     1    1
     3     1     2   ar
     4     2     3   ar
     5     3    19    1
     6    19    21    1
     7    21    22    1
     8    22    23   ar
     9    23    24   ar
    10    24    25   ar
    11    25    26   ar
    12    26    27   ar
    13     3     4   ar
    14     4     5   ar
    15     5    11    1
    16    11    12   ar
    17    12    13   ar
    18    13    14   ar
    19    14    15   ar
    20    15    16   ar
    21     5     6   ar
    22     6     7   ar
    23     7     8   ar
    24     8     9   ar
    25     9    10   ar
    26    10     1   ar
    27    27    22   ar
    28     9     4   ar
    29    16    11   ar
    30    19    20    1
@<TRIPOS>MOLECULE
*****
 27 30 0 0 0
SMALL
GASTEIGER

@<TRIPOS>ATOM
      1 C         138.7086  141.6113  160.6397 C.ar    1  UNL1        0.2342
      2 N         140.1617  141.5300  161.0033 N.ar    1  UNL1       -0.2031
      3 C         140.6662  142.2208  162.2354 C.ar    1  UNL1        0.1325
      4 C         139.7177  142.9929  163.1040 C.ar    1  UNL1        0.0491
      5 C         140.2223  143.6837  164.3361 C.ar    1  UNL1        0.0041
      6 C         139.2739  144.4558  165.2046 C.ar    1  UNL1        0.0002
      7 C         137.8209  144.5371  164.8410 C.ar    1  UNL1        0.0015
      8 C         137.3164  143.8463  163.6089 C.ar    1  UNL1        0.0193
      9 C         138.2648  143.0742  162.7403 C.ar    1  UNL1        0.0863
     10 N         137.7602  142.3834  161.5082 N.ar    1  UNL1       -0.2177
     11 C         141.6753  143.6024  164.6997 C.ar    1  UNL1        0.0001
     12 C         142.6592  144.5453  164.0729 C.ar    1  UNL1        0.0000
     13 C         144.1122  144.4640  164.4365 C.ar    1  UNL1        0.0000
     14 C         144.5813  143.4398  165.4270 C.ar    1  UNL1        0.0000
     15 C         143.5973  142.4969  166.0538 C.ar    1  UNL1        0.0000
     16 C         142.1444  142.5783  165.6902 C.ar    1  UNL1        0.0000
     17 N         137.6995  140.2296  158.1754 N.1     1  UNL1       -0.1876
     18 C         138.2041  140.9204  159.4075 C.1     1  UNL1        0.1400
     19 N         142.1192  142.1395  162.5991 N.pl3   1  UNL1       -0.3131
     20 H         142.5895  142.9390  162.9290 H       1  UNL1        0.1485
     21 C         142.8556  140.8401  162.4600 C.3     1  UNL1        0.1348
     22 C         142.3204  139.6010  163.1143 C.ar    1  UNL1        0.0788
     23 C         142.6775  139.2905  164.5376 C.ar    1  UNL1        0.0165
     24 C         142.1424  138.0513  165.1920 C.ar    1  UNL1        0.0029
     25 C         141.2500  137.1227  164.4229 C.ar    1  UNL1        0.0207
     26 C         140.8929  137.4333  162.9995 C.ar    1  UNL1        0.0985
     27 N         141.4281  138.6724  162.3452 N.ar    1  UNL1       -0.2464
@<TRIPOS>BOND
     1    17    18    3
     2    18     1    1
     3     1     2   ar
     4     2     3   ar
     5     3    19    1
     6    19    21    1
     7    21    22    1
     8    22    23   ar
     9    23    24   ar
    10    24    25   ar
    11    25    26   ar
    12    26    27   ar
    13     3     4   ar
    14     4     5   ar
    15     5    11    1
    16    11    12   ar
    17    12    13   ar
    18    13    14   ar
    19    14    15   ar
    20    15    16   ar
    21     5     6   ar
    22     6     7   ar
    23     7     8   ar
    24     8     9   ar
    25     9    10   ar
    26    10     1   ar
    27    27    22   ar
    28     9     4   ar
    29    16    11   ar
    30    19    20    1
@<TRIPOS>MOLECULE
*****
 27 30 0 0 0
SMALL
GASTEIGER

@<TRIPOS>ATOM
      1 C         138.5577  139.3944  165.9534 C.ar    1  UNL1        0.2342
      2 N         140.0509  139.2814  166.0414 N.ar    1  UNL1       -0.2031
      3 C         140.9208  140.1532  165.1851 C.ar    1  UNL1        0.1325
      4 C         140.2975  141.1380  164.2407 C.ar    1  UNL1        0.0491
      5 C         141.1673  142.0097  163.3844 C.ar    1  UNL1        0.0041
      6 C         140.5441  142.9945  162.4401 C.ar    1  UNL1        0.0002
      7 C         139.0510  143.1075  162.3521 C.ar    1  UNL1        0.0015
      8 C         138.1811  142.2357  163.2084 C.ar    1  UNL1        0.0193
      9 C         138.8043  141.2509  164.1527 C.ar    1  UNL1        0.0863
     10 N         137.9345  140.3791  165.0090 N.ar    1  UNL1       -0.2177
     11 C         142.6605  141.8967  163.4724 C.ar    1  UNL1        0.0001
     12 C         143.4234  142.7653  164.4283 C.ar    1  UNL1        0.0000
     13 C         144.9166  142.6523  164.5163 C.ar    1  UNL1        0.0000
     14 C         145.6468  141.6707  163.6485 C.ar    1  UNL1        0.0000
     15 C         144.8839  140.8021  162.6926 C.ar    1  UNL1        0.0000
     16 C         143.3908  140.9151  162.6046 C.ar    1  UNL1        0.0000
     17 N         136.8179  137.6508  167.6660 N.1     1  UNL1       -0.1876
     18 C         137.6878  138.5226  166.8097 C.1     1  UNL1        0.1400
     19 N         142.4139  140.0402  165.2731 N.pl3   1  UNL1       -0.3131
     20 H         142.9743  140.3198  164.5135 H       1  UNL1        0.1485
     21 C         143.0532  139.5012  166.5185 C.3     1  UNL1        0.1348
     22 C         142.8892  140.2278  167.8204 C.ar    1  UNL1        0.0788
     23 C         142.8132  141.7257  167.8389 C.ar    1  UNL1        0.0165
     24 C         142.6492  142.4524  169.1409 C.ar    1  UNL1        0.0029
     25 C         142.5613  141.6811  170.4244 C.ar    1  UNL1        0.0207
     26 C         142.6373  140.1830  170.4058 C.ar    1  UNL1        0.0985
     27 N         142.8012  139.4565  169.1039 N.ar    1  UNL1       -0.2464
@<TRIPOS>BOND
     1    17    18    3
     2    18     1    1
     3     1     2   ar
     4     2     3   ar
     5     3    19    1
     6    19    21    1
     7    21    22    1
     8    22    23   ar
     9    23    24   ar
    10    24    25   ar
    11    25    26   ar
    12    26    27   ar
    13     3     4   ar
    14     4     5   ar
    15     5    11    1
    16    11    12   ar
    17    12    13   ar
    18    13    14   ar
    19    14    15   ar
    20    15    16   ar
    21     5     6   ar
    22     6     7   ar
    23     7     8   ar
    24     8     9   ar
    25     9    10   ar
    26    10     1   ar
    27    27    22   ar
    28     9     4   ar
    29    16    11   ar
    30    19    20    1
@<TRIPOS>MOLECULE
*****
 27 30 0 0 0
SMALL
GASTEIGER

@<TRIPOS>ATOM
      1 C         138.9173  138.7771  166.0758 C.ar    1  UNL1        0.2342
      2 N         139.3751  140.1921  166.2716 N.ar    1  UNL1       -0.2031
      3 C         140.5334  140.7220  165.4794 C.ar    1  UNL1        0.1325
      4 C         141.2338  139.8369  164.4914 C.ar    1  UNL1        0.0491
      5 C         142.3921  140.3668  163.6992 C.ar    1  UNL1        0.0041
      6 C         143.0926  139.4818  162.7113 C.ar    1  UNL1        0.0002
      7 C         142.6347  138.0668  162.5156 C.ar    1  UNL1        0.0015
      8 C         141.4764  137.5370  163.3078 C.ar    1  UNL1        0.0193
      9 C         140.7760  138.4220  164.2957 C.ar    1  UNL1        0.0863
     10 N         139.6177  137.8921  165.0879 N.ar    1  UNL1       -0.2177
     11 C         142.8499  141.7818  163.8950 C.ar    1  UNL1        0.0001
     12 C         142.2649  142.8817  163.0597 C.ar    1  UNL1        0.0000
     13 C         142.7227  144.2967  163.2555 C.ar    1  UNL1        0.0000
     14 C         143.7656  144.6117  164.2866 C.ar    1  UNL1        0.0000
     15 C         144.3507  143.5116  165.1219 C.ar    1  UNL1        0.0000
     16 C         143.8928  142.0967  164.9261 C.ar    1  UNL1        0.0000
     17 N         136.6007  137.7173  167.6602 N.1     1  UNL1       -0.1876
     18 C         137.7590  138.2472  166.8680 C.1     1  UNL1        0.1400
     19 N         140.9912  142.1369  165.6751 N.pl3   1  UNL1       -0.3131
     20 H         141.5751  142.5623  165.0063 H       1  UNL1        0.1485
     21 C         140.5594  142.9037  166.8900 C.3     1  UNL1        0.1348
     22 C         141.1292  142.5614  168.2346 C.ar    1  UNL1        0.0788
     23 C         142.5955  142.2798  168.3782 C.ar    1  UNL1        0.0165
     24 C         143.1654  141.9375  169.7229 C.ar    1  UNL1        0.0029
     25 C         142.2689  141.8767  170.9240 C.ar    1  UNL1        0.0207
     26 C         140.8025  142.1584  170.7803 C.ar    1  UNL1        0.0985
     27 N         140.2327  142.5007  169.4357 N.ar    1  UNL1       -0.2464
@<TRIPOS>BOND
     1    17    18    3
     2    18     1    1
     3     1     2   ar
     4     2     3   ar
     5     3    19    1
     6    19    21    1
     7    21    22    1
     8    22    23   ar
     9    23    24   ar
    10    24    25   ar
    11    25    26   ar
    12    26    27   ar
    13     3     4   ar
    14     4     5   ar
    15     5    11    1
    16    11    12   ar
    17    12    13   ar
    18    13    14   ar
    19    14    15   ar
    20    15    16   ar
    21     5     6   ar
    22     6     7   ar
    23     7     8   ar
    24     8     9   ar
    25     9    10   ar
    26    10     1   ar
    27    27    22   ar
    28     9     4   ar
    29    16    11   ar
    30    19    20    1
@<TRIPOS>MOLECULE
*****
 27 30 0 0 0
SMALL
GASTEIGER

@<TRIPOS>ATOM
      1 C         138.8033  138.5157  165.7303 C.ar    1  UNL1        0.2342
      2 N         139.9594  139.3775  166.1439 N.ar    1  UNL1       -0.2031
      3 C         140.9995  139.7707  165.1372 C.ar    1  UNL1        0.1325
      4 C         140.8837  139.3022  163.7169 C.ar    1  UNL1        0.0491
      5 C         141.9238  139.6955  162.7102 C.ar    1  UNL1        0.0041
      6 C         141.8080  139.2270  161.2900 C.ar    1  UNL1        0.0002
      7 C         140.6521  138.3652  160.8765 C.ar    1  UNL1        0.0015
      8 C         139.6119  137.9720  161.8831 C.ar    1  UNL1        0.0193
      9 C         139.7277  138.4404  163.3034 C.ar    1  UNL1        0.0863
     10 N         138.6875  138.0472  164.3100 N.ar    1  UNL1       -0.2177
     11 C         143.0799  140.5573  163.1238 C.ar    1  UNL1        0.0001
     12 C         142.9664  142.0510  163.0484 C.ar    1  UNL1        0.0000
     13 C         144.1225  142.9128  163.4621 C.ar    1  UNL1        0.0000
     14 C         145.3919  142.2808  163.9511 C.ar    1  UNL1        0.0000
     15 C         145.5052  140.7869  164.0264 C.ar    1  UNL1        0.0000
     16 C         144.3493  139.9252  163.6128 C.ar    1  UNL1        0.0000
     17 N         136.7230  137.7291  167.7436 N.1     1  UNL1       -0.1876
     18 C         137.7632  138.1224  166.7369 C.1     1  UNL1        0.1400
     19 N         142.1555  140.6325  165.5507 N.pl3   1  UNL1       -0.3131
     20 H         142.5613  141.2549  164.9049 H       1  UNL1        0.1485
     21 C         142.6933  140.5459  166.9484 C.3     1  UNL1        0.1348
     22 C         142.2556  141.5395  167.9833 C.ar    1  UNL1        0.0788
     23 C         140.9210  142.2128  167.8594 C.ar    1  UNL1        0.0165
     24 C         140.4832  143.2065  168.8944 C.ar    1  UNL1        0.0029
     25 C         141.3802  143.5268  170.0532 C.ar    1  UNL1        0.0207
     26 C         142.7149  142.8535  170.1770 C.ar    1  UNL1        0.0985
     27 N         143.1526  141.8599  169.1421 N.ar    1  UNL1       -0.2464
@<TRIPOS>BOND
     1    17    18    3
     2    18     1    1
     3     1     2   ar
     4     2     3   ar
     5     3    19    1
     6    19    21    1
     7    21    22    1
     8    22    23   ar
     9    23    24   ar
    10    24    25   ar
    11    25    26   ar
    12    26    27   ar
    13     3     4   ar
    14     4     5   ar
    15     5    11    1
    16    11    12   ar
    17    12    13   ar
    18    13    14   ar
    19    14    15   ar
    20    15    16   ar
    21     5     6   ar
    22     6     7   ar
    23     7     8   ar
    24     8     9   ar
    25     9    10   ar
    26    10     1   ar
    27    27    22   ar
    28     9     4   ar
    29    16    11   ar
    30    19    20    1
