@<TRIPOS>MOLECULE
*****
 28 30 0 0 0
SMALL
GASTEIGER

@<TRIPOS>ATOM
      1 C         139.2465  138.9918  166.0089 C.ar    1  UNL1       -0.0036
      2 C         139.3981  138.1464  164.7792 C.ar    1  UNL1        0.0162
      3 C         140.6693  138.1995  163.9846 C.ar    1  UNL1        0.0844
      4 N         140.8209  137.3541  162.7549 N.ar    1  UNL1       -0.2436
      5 C         142.0920  137.4072  161.9603 C.ar    1  UNL1        0.1023
      6 C         143.2115  138.3059  162.3954 C.ar    1  UNL1        0.0608
      7 C         143.0598  139.1513  163.6251 C.ar    1  UNL1        0.1384
      8 C         141.7887  139.0981  164.4197 C.ar    1  UNL1        0.0558
      9 C         141.6370  139.9436  165.6494 C.ar    1  UNL1        0.0229
     10 C         140.3659  139.8905  166.4440 C.ar    1  UNL1        0.1018
     11 S         140.2142  140.7359  167.6737 S.O2    1  UNL1        0.0051
     12 O         139.7579  141.8865  166.8265 O.2     1  UNL1       -0.1687
     13 O         140.6704  139.5854  168.5210 O.2     1  UNL1       -0.1687
     14 C         140.0625  141.5813  168.9035 C.3     1  UNL1        0.1150
     15 C         139.5376  140.3941  169.6549 C.3     1  UNL1        0.0240
     16 C         140.5874  142.7686  168.1520 C.3     1  UNL1        0.0240
     17 C         139.9108  142.4267  170.1332 C.3     1  UNL1        0.0240
     18 C         137.3348  137.6166  167.1063 C.3     1  UNL1        0.0051
     19 C         137.9753  138.9387  166.8036 C.3     1  UNL1        0.0277
     20 N         144.1793  140.0499  164.0602 N.pl3   1  UNL1       -0.2004
     21 H         144.8898  139.7026  164.6465 H       1  UNL1        0.2982
     22 C         144.2162  141.4777  163.6020 C.2     1  UNL1        0.3331
     23 N         144.5393  141.9508  162.2156 N.2     1  UNL1        0.0753
     24 N         144.4592  143.4487  162.2065 N.2     1  UNL1       -0.0428
     25 C         144.0867  143.9014  163.5872 C.2     1  UNL1        0.0948
     26 C         143.8975  145.3225  164.0280 C.3     1  UNL1        0.0519
     27 C         143.9364  142.6833  164.4496 C.3     1  UNL1        0.1480
     28 C         143.5707  142.6726  165.9043 C.3     1  UNL1        0.0190
@<TRIPOS>BOND
     1    18    19    1
     2    19     1    1
     3     1     2   ar
     4     2     3   ar
     5     3     4   ar
     6     4     5   ar
     7     5     6   ar
     8     6     7   ar
     9     7    20    1
    10    20    22    1
    11    22    23    2
    12    23    24    1
    13    24    25    2
    14    25    26    1
    15    25    27    1
    16    27    28    1
    17     7     8   ar
    18     8     9   ar
    19     9    10   ar
    20    10    11    1
    21    11    12    2
    22    11    13    2
    23    11    14    1
    24    14    15    1
    25    14    16    1
    26    14    17    1
    27    10     1   ar
    28     8     3   ar
    29    27    22    1
    30    20    21    1
@<TRIPOS>MOLECULE
*****
 28 30 0 0 0
SMALL
GASTEIGER

@<TRIPOS>ATOM
      1 C         138.5978  140.0141  166.0118 C.ar    1  UNL1       -0.0036
      2 C         137.8038  140.4870  164.8304 C.ar    1  UNL1        0.0162
      3 C         138.2809  141.6607  164.0273 C.ar    1  UNL1        0.0844
      4 N         137.4869  142.1336  162.8458 N.ar    1  UNL1       -0.2436
      5 C         137.9640  143.3073  162.0428 C.ar    1  UNL1        0.1023
      6 C         139.2351  144.0080  162.4212 C.ar    1  UNL1        0.0608
      7 C         140.0291  143.5351  163.6027 C.ar    1  UNL1        0.1384
      8 C         139.5520  142.3615  164.4057 C.ar    1  UNL1        0.0558
      9 C         140.3461  141.8885  165.5872 C.ar    1  UNL1        0.0229
     10 C         139.8689  140.7149  166.3902 C.ar    1  UNL1        0.1018
     11 S         140.6630  140.2419  167.5717 S.O2    1  UNL1        0.0051
     12 O         141.4602  139.3412  166.6755 O.2     1  UNL1       -0.1687
     13 O         139.8658  141.1425  168.4680 O.2     1  UNL1       -0.1687
     14 C         141.4569  139.7690  168.7532 C.3     1  UNL1        0.1150
     15 C         140.3015  140.0847  169.6561 C.3     1  UNL1        0.0240
     16 C         142.6124  139.4532  167.8503 C.3     1  UNL1        0.0240
     17 C         142.2509  139.2961  169.9347 C.3     1  UNL1        0.0240
     18 C         138.1148  137.4688  166.2078 C.3     1  UNL1        0.0051
     19 C         138.1207  138.8404  166.8149 C.3     1  UNL1        0.0277
     20 N         141.3003  144.2358  163.9811 N.pl3   1  UNL1       -0.2004
     21 H         141.2749  145.0019  164.5990 H       1  UNL1        0.2982
     22 C         142.6100  143.7695  163.4181 C.2     1  UNL1        0.3331
     23 N         143.1654  144.1211  162.0697 N.2     1  UNL1        0.0753
     24 N         144.4930  143.4385  161.9228 N.2     1  UNL1       -0.0428
     25 C         144.7582  142.6650  163.1804 C.2     1  UNL1        0.0948
     26 C         145.9736  141.8331  163.4641 C.3     1  UNL1        0.0519
     27 C         143.5944  142.8695  164.1045 C.3     1  UNL1        0.1480
     28 C         143.4418  142.2780  165.4744 C.3     1  UNL1        0.0190
@<TRIPOS>BOND
     1    18    19    1
     2    19     1    1
     3     1     2   ar
     4     2     3   ar
     5     3     4   ar
     6     4     5   ar
     7     5     6   ar
     8     6     7   ar
     9     7    20    1
    10    20    22    1
    11    22    23    2
    12    23    24    1
    13    24    25    2
    14    25    26    1
    15    25    27    1
    16    27    28    1
    17     7     8   ar
    18     8     9   ar
    19     9    10   ar
    20    10    11    1
    21    11    12    2
    22    11    13    2
    23    11    14    1
    24    14    15    1
    25    14    16    1
    26    14    17    1
    27    10     1   ar
    28     8     3   ar
    29    27    22    1
    30    20    21    1
@<TRIPOS>MOLECULE
*****
 28 30 0 0 0
SMALL
GASTEIGER

@<TRIPOS>ATOM
      1 C         141.7562  139.2129  166.1752 C.ar    1  UNL1       -0.0036
      2 C         141.4117  138.3295  165.0130 C.ar    1  UNL1        0.0162
      3 C         140.2321  138.6566  164.1461 C.ar    1  UNL1        0.0844
      4 N         139.8875  137.7731  162.9839 N.ar    1  UNL1       -0.2436
      5 C         138.7080  138.1002  162.1170 C.ar    1  UNL1        0.1023
      6 C         137.8729  139.3108  162.4123 C.ar    1  UNL1        0.0608
      7 C         138.2175  140.1943  163.5744 C.ar    1  UNL1        0.1384
      8 C         139.3971  139.8672  164.4413 C.ar    1  UNL1        0.0558
      9 C         139.7417  140.7507  165.6036 C.ar    1  UNL1        0.0229
     10 C         140.9212  140.4235  166.4705 C.ar    1  UNL1        0.1018
     11 S         141.2658  141.3070  167.6328 S.O2    1  UNL1        0.0051
     12 O         142.1751  142.1114  166.7518 O.2     1  UNL1       -0.1687
     13 O         140.3565  140.5027  168.5137 O.2     1  UNL1       -0.1687
     14 C         141.6104  142.1904  168.7950 C.3     1  UNL1        0.1150
     15 C         143.0175  142.3075  168.2888 C.3     1  UNL1        0.0240
     16 C         140.2033  142.0733  169.3012 C.3     1  UNL1        0.0240
     17 C         141.9549  143.0738  169.9572 C.3     1  UNL1        0.0240
     18 C         144.0217  137.9898  166.5244 C.3     1  UNL1        0.0051
     19 C         142.9359  138.8858  167.0422 C.3     1  UNL1        0.0277
     20 N         137.3825  141.4049  163.8697 N.pl3   1  UNL1       -0.2004
     21 H         136.4392  141.3003  164.1316 H       1  UNL1        0.2982
     22 C         137.9846  142.7748  163.7661 C.2     1  UNL1        0.3331
     23 N         138.1881  143.7365  164.8991 N.2     1  UNL1        0.0753
     24 N         138.8182  144.9797  164.3444 N.2     1  UNL1       -0.0428
     25 C         139.0042  144.7862  162.8685 C.2     1  UNL1        0.0948
     26 C         139.6005  145.7808  161.9172 C.3     1  UNL1        0.0519
     27 C         138.4890  143.4236  162.5111 C.3     1  UNL1        0.1480
     28 C         138.4797  142.8163  161.1396 C.3     1  UNL1        0.0190
@<TRIPOS>BOND
     1    18    19    1
     2    19     1    1
     3     1     2   ar
     4     2     3   ar
     5     3     4   ar
     6     4     5   ar
     7     5     6   ar
     8     6     7   ar
     9     7    20    1
    10    20    22    1
    11    22    23    2
    12    23    24    1
    13    24    25    2
    14    25    26    1
    15    25    27    1
    16    27    28    1
    17     7     8   ar
    18     8     9   ar
    19     9    10   ar
    20    10    11    1
    21    11    12    2
    22    11    13    2
    23    11    14    1
    24    14    15    1
    25    14    16    1
    26    14    17    1
    27    10     1   ar
    28     8     3   ar
    29    27    22    1
    30    20    21    1
@<TRIPOS>MOLECULE
*****
 28 30 0 0 0
SMALL
GASTEIGER

@<TRIPOS>ATOM
      1 C         142.2875  140.7224  166.3398 C.ar    1  UNL1       -0.0036
      2 C         143.4061  141.6521  165.9733 C.ar    1  UNL1        0.0162
      3 C         143.1124  142.9246  165.2352 C.ar    1  UNL1        0.0844
      4 N         144.2309  143.8543  164.8687 N.ar    1  UNL1       -0.2436
      5 C         143.9372  145.1267  164.1306 C.ar    1  UNL1        0.1023
      6 C         142.5249  145.4692  163.7589 C.ar    1  UNL1        0.0608
      7 C         141.4064  144.5394  164.1254 C.ar    1  UNL1        0.1384
      8 C         141.7001  143.2671  164.8635 C.ar    1  UNL1        0.0558
      9 C         140.5815  142.3372  165.2300 C.ar    1  UNL1        0.0229
     10 C         140.8753  141.0649  165.9681 C.ar    1  UNL1        0.1018
     11 S         139.7567  140.1351  166.3346 S.O2    1  UNL1        0.0051
     12 O         139.9185  139.4237  165.0239 O.2     1  UNL1       -0.1687
     13 O         139.5948  140.8464  167.6452 O.2     1  UNL1       -0.1687
     14 C         138.6382  139.2053  166.7011 C.3     1  UNL1        0.1150
     15 C         138.5195  138.7826  165.2668 C.3     1  UNL1        0.0240
     16 C         138.7568  139.6279  168.1353 C.3     1  UNL1        0.0240
     17 C         137.5197  138.2755  167.0676 C.3     1  UNL1        0.0240
     18 C         142.6550  139.4519  168.5761 C.3     1  UNL1        0.0051
     19 C         142.5812  139.4500  167.0779 C.3     1  UNL1        0.0277
     20 N         139.9941  144.8820  163.7537 N.pl3   1  UNL1       -0.2004
     21 H         139.5237  145.6081  164.2236 H       1  UNL1        0.2982
     22 C         139.2985  144.1183  162.6661 C.2     1  UNL1        0.3331
     23 N         138.0078  143.3665  162.8035 N.2     1  UNL1        0.0753
     24 N         137.6830  142.7558  161.4724 N.2     1  UNL1       -0.0428
     25 C         138.7731  143.1302  160.5124 C.2     1  UNL1        0.0948
     26 C         138.8511  142.7324  159.0682 C.3     1  UNL1        0.0519
     27 C         139.7715  143.9722  161.2501 C.3     1  UNL1        0.1480
     28 C         141.0232  144.5643  160.6732 C.3     1  UNL1        0.0190
@<TRIPOS>BOND
     1    18    19    1
     2    19     1    1
     3     1     2   ar
     4     2     3   ar
     5     3     4   ar
     6     4     5   ar
     7     5     6   ar
     8     6     7   ar
     9     7    20    1
    10    20    22    1
    11    22    23    2
    12    23    24    1
    13    24    25    2
    14    25    26    1
    15    25    27    1
    16    27    28    1
    17     7     8   ar
    18     8     9   ar
    19     9    10   ar
    20    10    11    1
    21    11    12    2
    22    11    13    2
    23    11    14    1
    24    14    15    1
    25    14    16    1
    26    14    17    1
    27    10     1   ar
    28     8     3   ar
    29    27    22    1
    30    20    21    1
@<TRIPOS>MOLECULE
*****
 28 30 0 0 0
SMALL
GASTEIGER

@<TRIPOS>ATOM
      1 C         138.8848  139.4729  166.8495 C.ar    1  UNL1       -0.0036
      2 C         139.4996  139.8680  168.1594 C.ar    1  UNL1        0.0162
      3 C         140.7601  140.6809  168.1816 C.ar    1  UNL1        0.0844
      4 N         141.3749  141.0759  169.4915 N.ar    1  UNL1       -0.2436
      5 C         142.6353  141.8887  169.5136 C.ar    1  UNL1        0.1023
      6 C         143.2810  142.3065  168.2258 C.ar    1  UNL1        0.0608
      7 C         142.6663  141.9114  166.9158 C.ar    1  UNL1        0.1384
      8 C         141.4058  141.0986  166.8937 C.ar    1  UNL1        0.0558
      9 C         140.7910  140.7035  165.5838 C.ar    1  UNL1        0.0229
     10 C         139.5305  139.8907  165.5617 C.ar    1  UNL1        0.1018
     11 S         138.9157  139.4956  164.2517 S.O2    1  UNL1        0.0051
     12 O         138.0098  140.6894  164.3168 O.2     1  UNL1       -0.1687
     13 O         139.8216  138.3019  164.1866 O.2     1  UNL1       -0.1687
     14 C         138.3010  139.1005  162.9418 C.3     1  UNL1        0.1150
     15 C         137.7335  140.4809  162.7917 C.3     1  UNL1        0.0240
     16 C         138.8684  137.7201  163.0918 C.3     1  UNL1        0.0240
     17 C         137.6862  138.7054  161.6319 C.3     1  UNL1        0.0240
     18 C         137.6973  137.1659  166.7175 C.3     1  UNL1        0.0051
     19 C         137.6243  138.6601  166.8274 C.3     1  UNL1        0.0277
     20 N         143.3120  142.3292  165.6280 N.pl3   1  UNL1       -0.2004
     21 H         143.4630  143.2837  165.4400 H       1  UNL1        0.2982
     22 C         143.7276  141.2927  164.6266 C.2     1  UNL1        0.3331
     23 N         144.4125  139.9941  164.9342 N.2     1  UNL1        0.0753
     24 N         144.6394  139.2716  163.6394 N.2     1  UNL1       -0.0428
     25 C         144.0948  140.1237  162.5315 C.2     1  UNL1        0.0948
     26 C         144.1109  139.7859  161.0701 C.3     1  UNL1        0.0519
     27 C         143.5312  141.3727  163.1415 C.3     1  UNL1        0.1480
     28 C         142.8849  142.5034  162.3974 C.3     1  UNL1        0.0190
@<TRIPOS>BOND
     1    18    19    1
     2    19     1    1
     3     1     2   ar
     4     2     3   ar
     5     3     4   ar
     6     4     5   ar
     7     5     6   ar
     8     6     7   ar
     9     7    20    1
    10    20    22    1
    11    22    23    2
    12    23    24    1
    13    24    25    2
    14    25    26    1
    15    25    27    1
    16    27    28    1
    17     7     8   ar
    18     8     9   ar
    19     9    10   ar
    20    10    11    1
    21    11    12    2
    22    11    13    2
    23    11    14    1
    24    14    15    1
    25    14    16    1
    26    14    17    1
    27    10     1   ar
    28     8     3   ar
    29    27    22    1
    30    20    21    1
@<TRIPOS>MOLECULE
*****
 28 30 0 0 0
SMALL
GASTEIGER

@<TRIPOS>ATOM
      1 C         138.8105  143.8809  163.6817 C.ar    1  UNL1       -0.0036
      2 C         138.9690  144.8423  162.5412 C.ar    1  UNL1        0.0162
      3 C         139.9004  144.5181  161.4109 C.ar    1  UNL1        0.0844
      4 N         140.0590  145.4794  160.2705 N.ar    1  UNL1       -0.2436
      5 C         140.9903  145.1552  159.1403 C.ar    1  UNL1        0.1023
      6 C         141.7631  143.8696  159.1505 C.ar    1  UNL1        0.0608
      7 C         141.6045  142.9083  160.2909 C.ar    1  UNL1        0.1384
      8 C         140.6732  143.2325  161.4211 C.ar    1  UNL1        0.0558
      9 C         140.5146  142.2711  162.5617 C.ar    1  UNL1        0.0229
     10 C         139.5833  142.5954  163.6919 C.ar    1  UNL1        0.1018
     11 S         139.4247  141.6340  164.8324 S.O2    1  UNL1        0.0051
     12 O         138.3209  140.9383  164.0925 O.2     1  UNL1       -0.1687
     13 O         140.5285  142.3298  165.5723 O.2     1  UNL1       -0.1687
     14 C         139.2661  140.6728  165.9729 C.3     1  UNL1        0.1150
     15 C         138.2263  139.9218  165.1954 C.3     1  UNL1        0.0240
     16 C         140.3060  141.4238  166.7504 C.3     1  UNL1        0.0240
     17 C         139.1076  139.7115  167.1134 C.3     1  UNL1        0.0240
     18 C         138.3324  145.1057  165.9225 C.3     1  UNL1        0.0051
     19 C         137.8791  144.2052  164.8119 C.3     1  UNL1        0.0277
     20 N         142.3773  141.6227  160.3012 N.pl3   1  UNL1       -0.2004
     21 H         142.1683  140.9175  159.6468 H       1  UNL1        0.2982
     22 C         143.4686  141.4116  161.3084 C.2     1  UNL1        0.3331
     23 N         144.7120  142.2390  161.4478 N.2     1  UNL1        0.0753
     24 N         145.5199  141.6747  162.5788 N.2     1  UNL1       -0.0428
     25 C         144.7758  140.4986  163.1383 C.2     1  UNL1        0.0948
     26 C         145.2212  139.6365  164.2821 C.3     1  UNL1        0.0519
     27 C         143.5080  140.3359  162.3532 C.3     1  UNL1        0.1480
     28 C         142.4632  139.2827  162.5741 C.3     1  UNL1        0.0190
@<TRIPOS>BOND
     1    18    19    1
     2    19     1    1
     3     1     2   ar
     4     2     3   ar
     5     3     4   ar
     6     4     5   ar
     7     5     6   ar
     8     6     7   ar
     9     7    20    1
    10    20    22    1
    11    22    23    2
    12    23    24    1
    13    24    25    2
    14    25    26    1
    15    25    27    1
    16    27    28    1
    17     7     8   ar
    18     8     9   ar
    19     9    10   ar
    20    10    11    1
    21    11    12    2
    22    11    13    2
    23    11    14    1
    24    14    15    1
    25    14    16    1
    26    14    17    1
    27    10     1   ar
    28     8     3   ar
    29    27    22    1
    30    20    21    1
@<TRIPOS>MOLECULE
*****
 28 30 0 0 0
SMALL
GASTEIGER

@<TRIPOS>ATOM
      1 C         139.0234  139.6499  166.5407 C.ar    1  UNL1       -0.0036
      2 C         139.6999  140.1335  167.7890 C.ar    1  UNL1        0.0162
      3 C         140.9744  140.9190  167.6952 C.ar    1  UNL1        0.0844
      4 N         141.6509  141.4027  168.9436 N.ar    1  UNL1       -0.2436
      5 C         142.9253  142.1881  168.8498 C.ar    1  UNL1        0.1023
      6 C         143.5233  142.4899  167.5076 C.ar    1  UNL1        0.0608
      7 C         142.8468  142.0062  166.2593 C.ar    1  UNL1        0.1384
      8 C         141.5724  141.2208  166.3531 C.ar    1  UNL1        0.0558
      9 C         140.8959  140.7371  165.1047 C.ar    1  UNL1        0.0229
     10 C         139.6214  139.9516  165.1985 C.ar    1  UNL1        0.1018
     11 S         138.9449  139.4679  163.9501 S.O2    1  UNL1        0.0051
     12 O         138.0530  140.6738  163.9662 O.2     1  UNL1       -0.1687
     13 O         139.8368  138.2620  163.9341 O.2     1  UNL1       -0.1687
     14 C         138.2684  138.9842  162.7018 C.3     1  UNL1        0.1150
     15 C         137.7295  140.3629  162.4596 C.3     1  UNL1        0.0240
     16 C         138.8073  137.6055  162.9440 C.3     1  UNL1        0.0240
     17 C         137.5919  138.5004  161.4535 C.3     1  UNL1        0.0240
     18 C         137.7923  137.3654  166.6654 C.3     1  UNL1        0.0051
     19 C         137.7489  138.8644  166.6344 C.3     1  UNL1        0.0277
     20 N         143.4448  142.3080  164.9171 N.pl3   1  UNL1       -0.2004
     21 H         144.2555  141.8339  164.6216 H       1  UNL1        0.2982
     22 C         142.8077  143.3320  164.0253 C.2     1  UNL1        0.3331
     23 N         142.4991  144.7528  164.3942 N.2     1  UNL1        0.0753
     24 N         141.8680  145.4140  163.2048 N.2     1  UNL1       -0.0428
     25 C         141.7864  144.4017  162.1008 C.2     1  UNL1        0.0948
     26 C         141.2231  144.6352  160.7304 C.3     1  UNL1        0.0519
     27 C         142.3672  143.1150  162.6078 C.3     1  UNL1        0.1480
     28 C         142.4865  141.8359  161.8336 C.3     1  UNL1        0.0190
@<TRIPOS>BOND
     1    18    19    1
     2    19     1    1
     3     1     2   ar
     4     2     3   ar
     5     3     4   ar
     6     4     5   ar
     7     5     6   ar
     8     6     7   ar
     9     7    20    1
    10    20    22    1
    11    22    23    2
    12    23    24    1
    13    24    25    2
    14    25    26    1
    15    25    27    1
    16    27    28    1
    17     7     8   ar
    18     8     9   ar
    19     9    10   ar
    20    10    11    1
    21    11    12    2
    22    11    13    2
    23    11    14    1
    24    14    15    1
    25    14    16    1
    26    14    17    1
    27    10     1   ar
    28     8     3   ar
    29    27    22    1
    30    20    21    1
@<TRIPOS>MOLECULE
*****
 28 30 0 0 0
SMALL
GASTEIGER

@<TRIPOS>ATOM
      1 C         139.4573  140.7532  165.5537 C.ar    1  UNL1       -0.0036
      2 C         138.4316  141.7231  165.0467 C.ar    1  UNL1        0.0162
      3 C         138.8451  142.8506  164.1479 C.ar    1  UNL1        0.0844
      4 N         137.8193  143.8205  163.6410 N.ar    1  UNL1       -0.2436
      5 C         138.2328  144.9479  162.7422 C.ar    1  UNL1        0.1023
      6 C         139.6721  145.1054  162.3503 C.ar    1  UNL1        0.0608
      7 C         140.6979  144.1355  162.8573 C.ar    1  UNL1        0.1384
      8 C         140.2844  143.0081  163.7560 C.ar    1  UNL1        0.0558
      9 C         141.3102  142.0381  164.2630 C.ar    1  UNL1        0.0229
     10 C         140.8967  140.9107  165.1618 C.ar    1  UNL1        0.1018
     11 S         141.9225  139.9407  165.6688 S.O2    1  UNL1        0.0051
     12 O         142.1917  140.8377  166.8404 O.2     1  UNL1       -0.1687
     13 O         141.6532  139.0437  164.4971 O.2     1  UNL1       -0.1687
     14 C         142.9482  138.9708  166.1757 C.3     1  UNL1        0.1150
     15 C         142.6327  139.3740  167.5856 C.3     1  UNL1        0.0240
     16 C         143.2637  138.5676  164.7658 C.3     1  UNL1        0.0240
     17 C         143.9740  138.0008  166.6826 C.3     1  UNL1        0.0240
     18 C         138.3675  138.4169  165.8768 C.3     1  UNL1        0.0051
     19 C         139.0438  139.6256  166.4525 C.3     1  UNL1        0.0277
     20 N         142.1372  144.2931  162.4654 N.pl3   1  UNL1       -0.2004
     21 H         142.7971  144.6002  163.1283 H       1  UNL1        0.2982
     22 C         142.5711  143.9827  161.0635 C.2     1  UNL1        0.3331
     23 N         142.1714  144.7361  159.8296 N.2     1  UNL1        0.0753
     24 N         142.8342  144.0834  158.6528 N.2     1  UNL1       -0.0428
     25 C         143.6436  142.9266  159.1595 C.2     1  UNL1        0.0948
     26 C         144.4704  141.9955  158.3232 C.3     1  UNL1        0.0519
     27 C         143.4810  142.8643  160.6493 C.3     1  UNL1        0.1480
     28 C         144.1167  141.8601  161.5645 C.3     1  UNL1        0.0190
@<TRIPOS>BOND
     1    18    19    1
     2    19     1    1
     3     1     2   ar
     4     2     3   ar
     5     3     4   ar
     6     4     5   ar
     7     5     6   ar
     8     6     7   ar
     9     7    20    1
    10    20    22    1
    11    22    23    2
    12    23    24    1
    13    24    25    2
    14    25    26    1
    15    25    27    1
    16    27    28    1
    17     7     8   ar
    18     8     9   ar
    19     9    10   ar
    20    10    11    1
    21    11    12    2
    22    11    13    2
    23    11    14    1
    24    14    15    1
    25    14    16    1
    26    14    17    1
    27    10     1   ar
    28     8     3   ar
    29    27    22    1
    30    20    21    1
@<TRIPOS>MOLECULE
*****
 28 30 0 0 0
SMALL
GASTEIGER

@<TRIPOS>ATOM
      1 C         139.6859  138.1829  164.1882 C.ar    1  UNL1       -0.0036
      2 C         139.0955  137.9464  162.8297 C.ar    1  UNL1        0.0162
      3 C         139.7715  138.5016  161.6111 C.ar    1  UNL1        0.0844
      4 N         139.1811  138.2650  160.2527 N.ar    1  UNL1       -0.2436
      5 C         139.8571  138.8202  159.0342 C.ar    1  UNL1        0.1023
      6 C         141.1234  139.6120  159.1741 C.ar    1  UNL1        0.0608
      7 C         141.7137  139.8486  160.5326 C.ar    1  UNL1        0.1384
      8 C         141.0378  139.2934  161.7511 C.ar    1  UNL1        0.0558
      9 C         141.6281  139.5299  163.1096 C.ar    1  UNL1        0.0229
     10 C         140.9522  138.9747  164.3281 C.ar    1  UNL1        0.1018
     11 S         141.5425  139.2112  165.6867 S.O2    1  UNL1        0.0051
     12 O         142.3302  137.9405  165.5658 O.2     1  UNL1       -0.1687
     13 O         140.7548  140.4820  165.8077 O.2     1  UNL1       -0.1687
     14 C         142.1328  139.4478  167.0452 C.3     1  UNL1        0.1150
     15 C         143.3172  138.6041  166.6775 C.3     1  UNL1        0.0240
     16 C         140.9484  140.2915  167.4129 C.3     1  UNL1        0.0240
     17 C         142.7231  139.6844  168.4037 C.3     1  UNL1        0.0240
     18 C         138.0129  138.4606  166.1565 C.3     1  UNL1        0.0051
     19 C         139.0099  137.6277  165.4068 C.3     1  UNL1        0.0277
     20 N         142.9800  140.6403  160.6726 N.pl3   1  UNL1       -0.2004
     21 H         143.8487  140.2167  160.4851 H       1  UNL1        0.2982
     22 C         142.9228  142.0775  161.0982 C.2     1  UNL1        0.3331
     23 N         142.1870  143.1775  160.3921 N.2     1  UNL1        0.0753
     24 N         142.4007  144.4470  161.1622 N.2     1  UNL1       -0.0428
     25 C         143.2687  144.1314  162.3443 C.2     1  UNL1        0.0948
     26 C         143.7325  145.1086  163.3834 C.3     1  UNL1        0.0519
     27 C         143.5913  142.6671  162.3047 C.3     1  UNL1        0.1480
     28 C         144.4344  141.9228  163.2973 C.3     1  UNL1        0.0190
@<TRIPOS>BOND
     1    18    19    1
     2    19     1    1
     3     1     2   ar
     4     2     3   ar
     5     3     4   ar
     6     4     5   ar
     7     5     6   ar
     8     6     7   ar
     9     7    20    1
    10    20    22    1
    11    22    23    2
    12    23    24    1
    13    24    25    2
    14    25    26    1
    15    25    27    1
    16    27    28    1
    17     7     8   ar
    18     8     9   ar
    19     9    10   ar
    20    10    11    1
    21    11    12    2
    22    11    13    2
    23    11    14    1
    24    14    15    1
    25    14    16    1
    26    14    17    1
    27    10     1   ar
    28     8     3   ar
    29    27    22    1
    30    20    21    1
