@<TRIPOS>MOLECULE
*****
 44 48 0 0 0
SMALL
GASTEIGER

@<TRIPOS>ATOM
      1 C         139.5375  140.8323  164.1285 C.ar    1  UNL1        0.1235
      2 N         140.5769  140.3814  163.1455 N.ar    1  UNL1       -0.2305
      3 C         140.7187  141.4470  162.0994 C.ar    1  UNL1        0.1013
      4 C         139.7669  142.5565  162.4358 C.ar    1  UNL1        0.1141
      5 C         139.4707  143.8636  161.7623 C.ar    1  UNL1        0.1432
      6 N         140.2007  144.2435  160.5082 N.pl3   1  UNL1       -0.3414
      7 N         138.4444  144.7908  162.3429 N.ar    1  UNL1       -0.2265
      8 C         137.7144  144.4108  163.5970 C.ar    1  UNL1        0.1193
      9 C         138.0107  143.1038  164.2705 C.ar    1  UNL1        0.1020
     10 N         139.0369  142.1766  163.6899 N.ar    1  UNL1       -0.2885
     11 H         140.8742  143.6350  160.1272 H       1  UNL1        0.1438
     12 H         140.0062  145.1014  160.0662 H       1  UNL1        0.1438
     13 C         140.0605  140.5390  167.5081 C.3     1  UNL1        0.0325
     14 C         139.0367  139.4570  167.6852 C.3     1  UNL1        0.0056
     15 C         138.4303  139.1686  166.3439 C.3     1  UNL1        0.0074
     16 C         139.0792  140.0724  165.3378 C.3     1  UNL1        0.0514
     17 C         138.1675  139.3843  164.3655 C.3     1  UNL1        0.0075
     18 C         140.0867  140.9193  166.0574 C.3     1  UNL1        0.0123
     19 C         141.5229  139.7697  169.5130 C.3     1  UNL1        0.0004
     20 C         140.2568  140.3778  168.9865 C.3     1  UNL1        0.0049
     21 C         139.1870  140.8246  169.9383 C.3     1  UNL1        0.0004
     22 C         141.1252  141.5873  167.6401 C.2     1  UNL1        0.0497
     23 O         142.4854  141.3528  167.0528 O.co2   1  UNL1       -0.5492
     24 O         140.8297  142.8700  168.3594 O.co2   1  UNL1       -0.5492
     25 C         141.6489  141.4098  160.9232 C.ar    1  UNL1        0.0192
     26 C         141.1912  140.8171  159.6234 C.ar    1  UNL1        0.0017
     27 C         142.1214  140.7798  158.4473 C.ar    1  UNL1        0.0046
     28 C         143.5093  141.3352  158.5709 C.ar    1  UNL1        0.0537
     29 C         143.9670  141.9278  159.8706 C.ar    1  UNL1        0.0046
     30 C         143.0368  141.9651  161.0467 C.ar    1  UNL1        0.0017
     31 C         144.4395  141.2979  157.3947 C.2     1  UNL1        0.2505
     32 O         144.8435  139.9817  156.7994 O.2     1  UNL1       -0.2698
     33 N         144.9657  142.5769  156.8140 N.am    1  UNL1       -0.2658
     34 H         144.7006  143.4407  157.2047 H       1  UNL1        0.1566
     35 C         145.8960  142.5397  155.6378 C.ar    1  UNL1        0.1343
     36 C         147.3349  142.1628  155.8312 C.ar    1  UNL1        0.0383
     37 C         148.2651  142.1257  154.6550 C.ar    1  UNL1        0.0757
     38 C         147.7563  142.4654  153.2854 C.ar    1  UNL1        0.0246
     39 C         146.3174  142.8422  153.0920 C.ar    1  UNL1        0.1003
     40 N         145.3872  142.8794  154.2682 N.ar    1  UNL1       -0.2290
     41 C         149.7040  141.7488  154.8484 C.3     1  UNL1        0.4187
     42 F         151.1430  141.3720  155.0420 F       1  UNL1       -0.1659
     43 F         149.8235  141.4525  153.3829 F       1  UNL1       -0.1659
     44 F         149.5846  142.0452  156.3141 F       1  UNL1       -0.1659
@<TRIPOS>UNITY_ATOM_ATTR
23 1
charge -1
@<TRIPOS>BOND
     1    19    20    1
     2    20    21    1
     3    13    20    1
     4    13    22    1
     5    22    23   ar
     6    22    24   ar
     7    13    14    1
     8    14    15    1
     9    15    16    1
    10    16    17    1
    11    16     1    1
    12     1     2   ar
    13     2     3   ar
    14     3    25    1
    15    25    26   ar
    16    26    27   ar
    17    27    28   ar
    18    28    31    1
    19    31    32    2
    20    31    33   am
    21    33    35    1
    22    35    36   ar
    23    36    37   ar
    24    37    41    1
    25    41    42    1
    26    41    43    1
    27    41    44    1
    28    37    38   ar
    29    38    39   ar
    30    39    40   ar
    31    28    29   ar
    32    29    30   ar
    33     3     4   ar
    34     4     5   ar
    35     5     6    1
    36     5     7   ar
    37     7     8   ar
    38     8     9   ar
    39     9    10   ar
    40    16    18    1
    41    18    13    1
    42    10     1   ar
    43    30    25   ar
    44    10     4   ar
    45    40    35   ar
    46    33    34    1
    47     6    11    1
    48     6    12    1
@<TRIPOS>MOLECULE
*****
 44 48 0 0 0
SMALL
GASTEIGER

@<TRIPOS>ATOM
      1 C         139.8779  140.2306  165.0080 C.ar    1  UNL1        0.1235
      2 N         139.8119  141.5042  164.2184 N.ar    1  UNL1       -0.2305
      3 C         140.3347  141.2231  162.8408 C.ar    1  UNL1        0.1013
      4 C         140.7238  139.7758  162.7790 C.ar    1  UNL1        0.1141
      5 C         141.2987  138.9373  161.6762 C.ar    1  UNL1        0.1432
      6 N         141.5810  139.5507  160.3368 N.pl3   1  UNL1       -0.3414
      7 N         141.5913  137.4853  161.9127 N.ar    1  UNL1       -0.2265
      8 C         141.3090  136.8718  163.2521 C.ar    1  UNL1        0.1193
      9 C         140.7341  137.7103  164.3550 C.ar    1  UNL1        0.1020
     10 N         140.4415  139.1623  164.1184 N.ar    1  UNL1       -0.2885
     11 H         141.3889  140.5038  160.1816 H       1  UNL1        0.1438
     12 H         141.9583  139.0004  159.6130 H       1  UNL1        0.1438
     13 C         141.0929  140.2357  168.2182 C.3     1  UNL1        0.0325
     14 C         139.7593  139.9483  168.8419 C.3     1  UNL1        0.0056
     15 C         138.7468  139.8371  167.7407 C.3     1  UNL1        0.0074
     16 C         139.4547  140.0558  166.4364 C.3     1  UNL1        0.0514
     17 C         138.0932  139.8460  165.8427 C.3     1  UNL1        0.0075
     18 C         140.9047  140.3021  166.7315 C.3     1  UNL1        0.0123
     19 C         142.5229  139.1575  170.1003 C.3     1  UNL1        0.0004
     20 C         141.5813  140.2290  169.6364 C.3     1  UNL1        0.0049
     21 C         141.1281  141.2939  170.5907 C.3     1  UNL1        0.0004
     22 C         142.5286  140.5216  167.8909 C.2     1  UNL1        0.0497
     23 O         143.1098  141.8730  168.1842 O.co2   1  UNL1       -0.5492
     24 O         143.3830  139.4563  167.2705 O.co2   1  UNL1       -0.5492
     25 C         140.4484  142.2152  161.7215 C.ar    1  UNL1        0.0192
     26 C         139.3493  142.3308  160.7071 C.ar    1  UNL1        0.0017
     27 C         139.4630  143.3229  159.5878 C.ar    1  UNL1        0.0046
     28 C         140.6757  144.1994  159.4829 C.ar    1  UNL1        0.0537
     29 C         141.7747  144.0839  160.4972 C.ar    1  UNL1        0.0046
     30 C         141.6610  143.0918  161.6165 C.ar    1  UNL1        0.0017
     31 C         140.7894  145.1915  158.3636 C.2     1  UNL1        0.2505
     32 O         142.0110  146.0542  158.2472 O.2     1  UNL1       -0.2698
     33 N         139.6815  145.3209  157.3608 N.am    1  UNL1       -0.2658
     34 H         138.8798  144.7547  157.4372 H       1  UNL1        0.1566
     35 C         139.7951  146.3130  156.2414 C.ar    1  UNL1        0.1343
     36 C         139.1623  147.6667  156.3718 C.ar    1  UNL1        0.0383
     37 C         139.2760  148.6587  155.2524 C.ar    1  UNL1        0.0757
     38 C         140.0225  148.2970  154.0026 C.ar    1  UNL1        0.0246
     39 C         140.6553  146.9433  153.8723 C.ar    1  UNL1        0.1003
     40 N         140.5416  145.9513  154.9917 N.ar    1  UNL1       -0.2290
     41 C         138.6432  150.0124  155.3829 C.3     1  UNL1        0.4187
     42 F         138.0103  151.3662  155.5133 F       1  UNL1       -0.1659
     43 F         138.1648  149.6562  156.7592 F       1  UNL1       -0.1659
     44 F         139.1215  150.3687  154.0065 F       1  UNL1       -0.1659
@<TRIPOS>UNITY_ATOM_ATTR
23 1
charge -1
@<TRIPOS>BOND
     1    19    20    1
     2    20    21    1
     3    13    20    1
     4    13    22    1
     5    22    23   ar
     6    22    24   ar
     7    13    14    1
     8    14    15    1
     9    15    16    1
    10    16    17    1
    11    16     1    1
    12     1     2   ar
    13     2     3   ar
    14     3    25    1
    15    25    26   ar
    16    26    27   ar
    17    27    28   ar
    18    28    31    1
    19    31    32    2
    20    31    33   am
    21    33    35    1
    22    35    36   ar
    23    36    37   ar
    24    37    41    1
    25    41    42    1
    26    41    43    1
    27    41    44    1
    28    37    38   ar
    29    38    39   ar
    30    39    40   ar
    31    28    29   ar
    32    29    30   ar
    33     3     4   ar
    34     4     5   ar
    35     5     6    1
    36     5     7   ar
    37     7     8   ar
    38     8     9   ar
    39     9    10   ar
    40    16    18    1
    41    18    13    1
    42    10     1   ar
    43    30    25   ar
    44    10     4   ar
    45    40    35   ar
    46    33    34    1
    47     6    11    1
    48     6    12    1
@<TRIPOS>MOLECULE
*****
 44 48 0 0 0
SMALL
GASTEIGER

@<TRIPOS>ATOM
      1 C         139.2849  140.3893  164.7658 C.ar    1  UNL1        0.1235
      2 N         139.8509  139.4525  163.7401 N.ar    1  UNL1       -0.2305
      3 C         139.6845  140.0870  162.3911 C.ar    1  UNL1        0.1013
      4 C         139.0157  141.4158  162.5831 C.ar    1  UNL1        0.1141
      5 C         138.5997  142.4798  161.6111 C.ar    1  UNL1        0.1432
      6 N         138.8466  142.2930  160.1434 N.pl3   1  UNL1       -0.3414
      7 N         137.9367  143.7307  162.1068 N.ar    1  UNL1       -0.2265
      8 C         137.6898  143.9176  163.5745 C.ar    1  UNL1        0.1193
      9 C         138.1058  142.8536  164.5465 C.ar    1  UNL1        0.1020
     10 N         138.7688  141.6027  164.0508 N.ar    1  UNL1       -0.2885
     11 H         139.2817  141.4720  159.8181 H       1  UNL1        0.1438
     12 H         138.5736  142.9913  159.5055 H       1  UNL1        0.1438
     13 C         140.8151  141.2943  167.7020 C.3     1  UNL1        0.0325
     14 C         139.9347  140.4312  168.5565 C.3     1  UNL1        0.0056
     15 C         138.9628  139.7265  167.6570 C.3     1  UNL1        0.0074
     16 C         139.2426  140.1541  166.2467 C.3     1  UNL1        0.0514
     17 C         138.1067  139.2343  165.9093 C.3     1  UNL1        0.0075
     18 C         140.3874  141.1230  166.2745 C.3     1  UNL1        0.0123
     19 C         141.2716  143.0403  169.5709 C.3     1  UNL1        0.0004
     20 C         141.4548  141.6621  169.0080 C.3     1  UNL1        0.0049
     21 C         142.2776  140.6517  169.7510 C.3     1  UNL1        0.0004
     22 C         141.8292  142.2342  167.1206 C.2     1  UNL1        0.0497
     23 O         141.4144  143.2398  166.0877 O.co2   1  UNL1       -0.5492
     24 O         143.2581  142.1686  167.5722 O.co2   1  UNL1       -0.5492
     25 C         140.1118  139.4963  161.0802 C.ar    1  UNL1        0.0192
     26 C         141.5446  139.5915  160.6462 C.ar    1  UNL1        0.0017
     27 C         141.9719  139.0008  159.3353 C.ar    1  UNL1        0.0046
     28 C         140.9666  138.3149  158.4584 C.ar    1  UNL1        0.0537
     29 C         139.5340  138.2197  158.8924 C.ar    1  UNL1        0.0046
     30 C         139.1066  138.8104  160.2033 C.ar    1  UNL1        0.0017
     31 C         141.3940  137.7242  157.1475 C.2     1  UNL1        0.2505
     32 O         142.7101  138.1140  156.5427 O.2     1  UNL1       -0.2698
     33 N         140.5052  136.7436  156.4415 N.am    1  UNL1       -0.2658
     34 H         139.6414  136.4878  156.8385 H       1  UNL1        0.1566
     35 C         140.9324  136.1528  155.1306 C.ar    1  UNL1        0.1343
     36 C         141.5611  134.7915  155.0907 C.ar    1  UNL1        0.0383
     37 C         141.9883  134.2008  153.7797 C.ar    1  UNL1        0.0757
     38 C         141.7869  134.9715  152.5087 C.ar    1  UNL1        0.0246
     39 C         141.1583  136.3328  152.5486 C.ar    1  UNL1        0.1003
     40 N         140.7311  136.9235  153.8595 N.ar    1  UNL1       -0.2290
     41 C         142.6169  132.8395  153.7399 C.3     1  UNL1        0.4187
     42 F         143.2455  131.4781  153.7000 F       1  UNL1       -0.1659
     43 F         143.4636  133.1957  154.9258 F       1  UNL1       -0.1659
     44 F         141.7703  132.4832  152.5540 F       1  UNL1       -0.1659
@<TRIPOS>UNITY_ATOM_ATTR
23 1
charge -1
@<TRIPOS>BOND
     1    19    20    1
     2    20    21    1
     3    13    20    1
     4    13    22    1
     5    22    23   ar
     6    22    24   ar
     7    13    14    1
     8    14    15    1
     9    15    16    1
    10    16    17    1
    11    16     1    1
    12     1     2   ar
    13     2     3   ar
    14     3    25    1
    15    25    26   ar
    16    26    27   ar
    17    27    28   ar
    18    28    31    1
    19    31    32    2
    20    31    33   am
    21    33    35    1
    22    35    36   ar
    23    36    37   ar
    24    37    41    1
    25    41    42    1
    26    41    43    1
    27    41    44    1
    28    37    38   ar
    29    38    39   ar
    30    39    40   ar
    31    28    29   ar
    32    29    30   ar
    33     3     4   ar
    34     4     5   ar
    35     5     6    1
    36     5     7   ar
    37     7     8   ar
    38     8     9   ar
    39     9    10   ar
    40    16    18    1
    41    18    13    1
    42    10     1   ar
    43    30    25   ar
    44    10     4   ar
    45    40    35   ar
    46    33    34    1
    47     6    11    1
    48     6    12    1
@<TRIPOS>MOLECULE
*****
 44 48 0 0 0
SMALL
GASTEIGER

@<TRIPOS>ATOM
      1 C         141.3932  138.4795  157.6953 C.ar    1  UNL1        0.1235
      2 N         141.1408  138.4558  159.1737 N.ar    1  UNL1       -0.2305
      3 C         142.0589  139.4526  159.8167 C.ar    1  UNL1        0.1013
      4 C         142.8788  140.0923  158.7357 C.ar    1  UNL1        0.1141
      5 C         143.9468  141.1447  158.7759 C.ar    1  UNL1        0.1432
      6 N         144.3582  141.7461  160.0870 N.pl3   1  UNL1       -0.3414
      7 N         144.6034  141.5958  157.5049 N.ar    1  UNL1       -0.2265
      8 C         144.1920  140.9943  156.1938 C.ar    1  UNL1        0.1193
      9 C         143.1240  139.9419  156.1537 C.ar    1  UNL1        0.1020
     10 N         142.4674  139.4909  157.4246 N.ar    1  UNL1       -0.2885
     11 H         143.9273  141.4501  160.9212 H       1  UNL1        0.1438
     12 H         145.0592  142.4369  160.1134 H       1  UNL1        0.1438
     13 C         141.7604  135.6345  155.8104 C.3     1  UNL1        0.0325
     14 C         140.4274  135.7750  155.1369 C.3     1  UNL1        0.0056
     15 C         139.7685  137.0140  155.6669 C.3     1  UNL1        0.0074
     16 C         140.6942  137.6393  156.6680 C.3     1  UNL1        0.0514
     17 C         139.6094  138.6674  156.7941 C.3     1  UNL1        0.0075
     18 C         141.9253  136.7867  156.7566 C.3     1  UNL1        0.0123
     19 C         141.7462  133.0451  155.5999 C.3     1  UNL1        0.0004
     20 C         141.8792  134.3990  154.9682 C.3     1  UNL1        0.0049
     21 C         142.1311  134.5175  153.4942 C.3     1  UNL1        0.0004
     22 C         143.1181  135.2358  156.3078 C.2     1  UNL1        0.0497
     23 O         144.3358  135.5331  155.4837 O.co2   1  UNL1       -0.5492
     24 O         143.2583  134.5398  157.6291 O.co2   1  UNL1       -0.5492
     25 C         142.1425  139.7563  161.2833 C.ar    1  UNL1        0.0192
     26 C         143.0709  138.9696  162.1605 C.ar    1  UNL1        0.0017
     27 C         143.1545  139.2733  163.6270 C.ar    1  UNL1        0.0046
     28 C         142.3098  140.3638  164.2164 C.ar    1  UNL1        0.0537
     29 C         141.3815  141.1505  163.3393 C.ar    1  UNL1        0.0046
     30 C         141.2979  140.8467  161.8727 C.ar    1  UNL1        0.0017
     31 C         142.3934  140.6675  165.6830 C.2     1  UNL1        0.2505
     32 O         142.5642  139.5522  166.6714 O.2     1  UNL1       -0.2698
     33 N         142.3061  142.0866  166.1610 N.am    1  UNL1       -0.2658
     34 H         142.1940  142.8186  165.5123 H       1  UNL1        0.1566
     35 C         142.3897  142.3904  167.6276 C.ar    1  UNL1        0.1343
     36 C         141.1439  142.7093  168.3998 C.ar    1  UNL1        0.0383
     37 C         141.2276  143.0131  169.8663 C.ar    1  UNL1        0.0757
     38 C         142.5571  142.9981  170.5607 C.ar    1  UNL1        0.0246
     39 C         143.8029  142.6793  169.7885 C.ar    1  UNL1        0.1003
     40 N         143.7192  142.3754  168.3220 N.ar    1  UNL1       -0.2290
     41 C         139.9817  143.3320  170.6383 C.3     1  UNL1        0.4187
     42 F         138.7358  143.6509  171.4104 F       1  UNL1       -0.1659
     43 F         139.8448  141.8864  171.0146 F       1  UNL1       -0.1659
     44 F         140.1186  144.7776  170.2622 F       1  UNL1       -0.1659
@<TRIPOS>UNITY_ATOM_ATTR
23 1
charge -1
@<TRIPOS>BOND
     1    19    20    1
     2    20    21    1
     3    13    20    1
     4    13    22    1
     5    22    23   ar
     6    22    24   ar
     7    13    14    1
     8    14    15    1
     9    15    16    1
    10    16    17    1
    11    16     1    1
    12     1     2   ar
    13     2     3   ar
    14     3    25    1
    15    25    26   ar
    16    26    27   ar
    17    27    28   ar
    18    28    31    1
    19    31    32    2
    20    31    33   am
    21    33    35    1
    22    35    36   ar
    23    36    37   ar
    24    37    41    1
    25    41    42    1
    26    41    43    1
    27    41    44    1
    28    37    38   ar
    29    38    39   ar
    30    39    40   ar
    31    28    29   ar
    32    29    30   ar
    33     3     4   ar
    34     4     5   ar
    35     5     6    1
    36     5     7   ar
    37     7     8   ar
    38     8     9   ar
    39     9    10   ar
    40    16    18    1
    41    18    13    1
    42    10     1   ar
    43    30    25   ar
    44    10     4   ar
    45    40    35   ar
    46    33    34    1
    47     6    11    1
    48     6    12    1
@<TRIPOS>MOLECULE
*****
 44 48 0 0 0
SMALL
GASTEIGER

@<TRIPOS>ATOM
      1 C         141.7425  142.1437  164.3361 C.ar    1  UNL1        0.1235
      2 N         142.0060  141.0799  163.3120 N.ar    1  UNL1       -0.2305
      3 C         141.0011  141.2386  162.2097 C.ar    1  UNL1        0.1013
      4 C         140.1165  142.4004  162.5526 C.ar    1  UNL1        0.1141
      5 C         138.9530  143.0212  161.8379 C.ar    1  UNL1        0.1432
      6 N         138.4948  142.4618  160.5237 N.pl3   1  UNL1       -0.3414
      7 N         138.2477  144.2015  162.4375 N.ar    1  UNL1       -0.2265
      8 C         138.7058  144.7609  163.7517 C.ar    1  UNL1        0.1193
      9 C         139.8693  144.1401  164.4663 C.ar    1  UNL1        0.1020
     10 N         140.5747  142.9598  163.8668 N.ar    1  UNL1       -0.2885
     11 H         138.9578  141.6872  160.1302 H       1  UNL1        0.1438
     12 H         137.7312  142.8693  160.0547 H       1  UNL1        0.1438
     13 C         141.8182  141.2342  167.6450 C.3     1  UNL1        0.0325
     14 C         143.0306  142.0597  167.9592 C.3     1  UNL1        0.0056
     15 C         143.4591  142.7521  166.6993 C.3     1  UNL1        0.0074
     16 C         142.5116  142.3545  165.6066 C.3     1  UNL1        0.0514
     17 C         143.3650  143.2485  164.7566 C.3     1  UNL1        0.0075
     18 C         141.4975  141.4163  166.1910 C.3     1  UNL1        0.0123
     19 C         141.5725  141.8853  170.1481 C.3     1  UNL1        0.0004
     20 C         141.8886  140.8632  169.0967 C.3     1  UNL1        0.0049
     21 C         142.2752  139.4703  169.4970 C.3     1  UNL1        0.0004
     22 C         140.6206  140.3311  167.6343 C.2     1  UNL1        0.0497
     23 O         140.5515  139.1885  166.6649 O.co2   1  UNL1       -0.5492
     24 O         139.4921  140.5707  168.5930 O.co2   1  UNL1       -0.5492
     25 C         140.8988  140.3852  160.9804 C.ar    1  UNL1        0.0192
     26 C         141.7595  140.6814  159.7880 C.ar    1  UNL1        0.0017
     27 C         141.6572  139.8280  158.5587 C.ar    1  UNL1        0.0046
     28 C         140.6942  138.6785  158.5216 C.ar    1  UNL1        0.0537
     29 C         139.8336  138.3824  159.7139 C.ar    1  UNL1        0.0046
     30 C         139.9359  139.2358  160.9433 C.ar    1  UNL1        0.0017
     31 C         140.5919  137.8252  157.2923 C.2     1  UNL1        0.2505
     32 O         139.2631  137.6270  156.6253 O.2     1  UNL1       -0.2698
     33 N         141.8185  137.1699  156.7300 N.am    1  UNL1       -0.2658
     34 H         142.6906  137.3000  157.1678 H       1  UNL1        0.1566
     35 C         141.7162  136.3165  155.5006 C.ar    1  UNL1        0.1343
     36 C         141.5227  134.8347  155.6301 C.ar    1  UNL1        0.0383
     37 C         141.4205  133.9814  154.4007 C.ar    1  UNL1        0.0757
     38 C         141.5118  134.6099  153.0418 C.ar    1  UNL1        0.0246
     39 C         141.7053  136.0917  152.9123 C.ar    1  UNL1        0.1003
     40 N         141.8075  136.9450  154.1417 N.ar    1  UNL1       -0.2290
     41 C         141.2269  132.4997  154.5303 C.3     1  UNL1        0.4187
     42 F         141.0334  131.0178  154.6598 F       1  UNL1       -0.1659
     43 F         141.6614  132.5682  155.9643 F       1  UNL1       -0.1659
     44 F         140.7924  132.4310  153.0962 F       1  UNL1       -0.1659
@<TRIPOS>UNITY_ATOM_ATTR
23 1
charge -1
@<TRIPOS>BOND
     1    19    20    1
     2    20    21    1
     3    13    20    1
     4    13    22    1
     5    22    23   ar
     6    22    24   ar
     7    13    14    1
     8    14    15    1
     9    15    16    1
    10    16    17    1
    11    16     1    1
    12     1     2   ar
    13     2     3   ar
    14     3    25    1
    15    25    26   ar
    16    26    27   ar
    17    27    28   ar
    18    28    31    1
    19    31    32    2
    20    31    33   am
    21    33    35    1
    22    35    36   ar
    23    36    37   ar
    24    37    41    1
    25    41    42    1
    26    41    43    1
    27    41    44    1
    28    37    38   ar
    29    38    39   ar
    30    39    40   ar
    31    28    29   ar
    32    29    30   ar
    33     3     4   ar
    34     4     5   ar
    35     5     6    1
    36     5     7   ar
    37     7     8   ar
    38     8     9   ar
    39     9    10   ar
    40    16    18    1
    41    18    13    1
    42    10     1   ar
    43    30    25   ar
    44    10     4   ar
    45    40    35   ar
    46    33    34    1
    47     6    11    1
    48     6    12    1
@<TRIPOS>MOLECULE
*****
 44 48 0 0 0
SMALL
GASTEIGER

@<TRIPOS>ATOM
      1 C         141.6537  141.9604  163.7884 C.ar    1  UNL1        0.1235
      2 N         142.5786  141.4528  162.7222 N.ar    1  UNL1       -0.2305
      3 C         142.5823  142.4478  161.5997 C.ar    1  UNL1        0.1013
      4 C         141.6595  143.5703  161.9721 C.ar    1  UNL1        0.1141
      5 C         141.2678  144.8277  161.2543 C.ar    1  UNL1        0.1432
      6 N         141.8417  145.1290  159.9016 N.pl3   1  UNL1       -0.3414
      7 N         140.3021  145.7839  161.8892 N.ar    1  UNL1       -0.2265
      8 C         139.7282  145.4826  163.2419 C.ar    1  UNL1        0.1193
      9 C         140.1199  144.2251  163.9598 C.ar    1  UNL1        0.1020
     10 N         141.0856  143.2690  163.3249 N.ar    1  UNL1       -0.2885
     11 H         142.4755  144.5014  159.4849 H       1  UNL1        0.1438
     12 H         141.5846  145.9543  159.4305 H       1  UNL1        0.1438
     13 C         139.5915  139.6099  165.2041 C.3     1  UNL1        0.0325
     14 C         140.1906  139.7466  166.5725 C.3     1  UNL1        0.0056
     15 C         141.2774  140.7781  166.5018 C.3     1  UNL1        0.0074
     16 C         141.3500  141.2789  165.0897 C.3     1  UNL1        0.0514
     17 C         142.4553  142.1434  165.6197 C.3     1  UNL1        0.0075
     18 C         140.3080  140.5568  164.2877 C.3     1  UNL1        0.0123
     19 C         138.7716  137.1550  165.4300 C.3     1  UNL1        0.0004
     20 C         138.7113  138.5897  165.8633 C.3     1  UNL1        0.0049
     21 C         137.7708  139.0044  166.9558 C.3     1  UNL1        0.0004
     22 C         138.8085  139.2598  163.9736 C.2     1  UNL1        0.0497
     23 O         137.5175  139.9653  163.6802 O.co2   1  UNL1       -0.5492
     24 O         139.3163  138.2045  163.0364 O.co2   1  UNL1       -0.5492
     25 C         143.3703  142.3394  160.3280 C.ar    1  UNL1        0.0192
     26 C         144.7942  142.8094  160.2856 C.ar    1  UNL1        0.0017
     27 C         145.5823  142.7010  159.0139 C.ar    1  UNL1        0.0046
     28 C         144.9464  142.1227  157.7845 C.ar    1  UNL1        0.0537
     29 C         143.5226  141.6528  157.8269 C.ar    1  UNL1        0.0046
     30 C         142.7345  141.7612  159.0986 C.ar    1  UNL1        0.0017
     31 C         145.7344  142.0143  156.5128 C.2     1  UNL1        0.2505
     32 O         145.3934  140.9549  155.5071 O.2     1  UNL1       -0.2698
     33 N         146.8635  142.9653  156.2468 N.am    1  UNL1       -0.2658
     34 H         147.0873  143.6606  156.9069 H       1  UNL1        0.1566
     35 C         147.6515  142.8570  154.9751 C.ar    1  UNL1        0.1343
     36 C         148.8671  141.9800  154.9183 C.ar    1  UNL1        0.0383
     37 C         149.6551  141.8717  153.6466 C.ar    1  UNL1        0.0757
     38 C         149.2276  142.6405  152.4316 C.ar    1  UNL1        0.0246
     39 C         148.0120  143.5176  152.4884 C.ar    1  UNL1        0.1003
     40 N         147.2240  143.6258  153.7601 N.ar    1  UNL1       -0.2290
     41 C         150.8706  140.9947  153.5899 C.3     1  UNL1        0.4187
     42 F         152.0862  140.1175  153.5331 F       1  UNL1       -0.1659
     43 F         151.3896  141.6327  154.8443 F       1  UNL1       -0.1659
     44 F         150.3517  140.3566  152.3354 F       1  UNL1       -0.1659
@<TRIPOS>UNITY_ATOM_ATTR
23 1
charge -1
@<TRIPOS>BOND
     1    19    20    1
     2    20    21    1
     3    13    20    1
     4    13    22    1
     5    22    23   ar
     6    22    24   ar
     7    13    14    1
     8    14    15    1
     9    15    16    1
    10    16    17    1
    11    16     1    1
    12     1     2   ar
    13     2     3   ar
    14     3    25    1
    15    25    26   ar
    16    26    27   ar
    17    27    28   ar
    18    28    31    1
    19    31    32    2
    20    31    33   am
    21    33    35    1
    22    35    36   ar
    23    36    37   ar
    24    37    41    1
    25    41    42    1
    26    41    43    1
    27    41    44    1
    28    37    38   ar
    29    38    39   ar
    30    39    40   ar
    31    28    29   ar
    32    29    30   ar
    33     3     4   ar
    34     4     5   ar
    35     5     6    1
    36     5     7   ar
    37     7     8   ar
    38     8     9   ar
    39     9    10   ar
    40    16    18    1
    41    18    13    1
    42    10     1   ar
    43    30    25   ar
    44    10     4   ar
    45    40    35   ar
    46    33    34    1
    47     6    11    1
    48     6    12    1
@<TRIPOS>MOLECULE
*****
 44 48 0 0 0
SMALL
GASTEIGER

@<TRIPOS>ATOM
      1 C         141.6825  137.4486  156.5019 C.ar    1  UNL1        0.1235
      2 N         141.0315  137.5904  157.8458 N.ar    1  UNL1       -0.2305
      3 C         141.8018  138.6123  158.6284 C.ar    1  UNL1        0.1013
      4 C         142.9289  139.1019  157.7682 C.ar    1  UNL1        0.1141
      5 C         144.0128  140.1097  158.0118 C.ar    1  UNL1        0.1432
      6 N         144.0866  140.8289  159.3261 N.pl3   1  UNL1       -0.3414
      7 N         145.0230  140.3983  156.9412 N.ar    1  UNL1       -0.2265
      8 C         144.9492  139.6791  155.6269 C.ar    1  UNL1        0.1193
      9 C         143.8653  138.6713  155.3833 C.ar    1  UNL1        0.1020
     10 N         142.8551  138.3827  156.4539 N.ar    1  UNL1       -0.2885
     11 H         143.4235  140.6395  160.0288 H       1  UNL1        0.1438
     12 H         144.7980  141.4904  159.4860 H       1  UNL1        0.1438
     13 C         141.9668  134.2180  155.3776 C.3     1  UNL1        0.0325
     14 C         141.0934  134.4406  154.1785 C.3     1  UNL1        0.0056
     15 C         140.6434  135.8716  154.1921 C.3     1  UNL1        0.0074
     16 C         141.2387  136.5333  155.3995 C.3     1  UNL1        0.0514
     17 C         140.5136  137.7465  154.8973 C.3     1  UNL1        0.0075
     18 C         142.0566  135.5113  156.1321 C.3     1  UNL1        0.0123
     19 C         143.3770  132.2935  154.3493 C.3     1  UNL1        0.0004
     20 C         142.0638  132.8170  154.8506 C.3     1  UNL1        0.0049
     21 C         140.8475  131.9395  154.8249 C.3     1  UNL1        0.0004
     22 C         142.8605  133.7025  156.4664 C.2     1  UNL1        0.0497
     23 O         142.4938  132.4512  157.2080 O.co2   1  UNL1       -0.5492
     24 O         144.1207  134.4382  156.8136 O.co2   1  UNL1       -0.5492
     25 C         141.4984  139.0650  160.0259 C.ar    1  UNL1        0.0192
     26 C         140.6303  140.2672  160.2530 C.ar    1  UNL1        0.0017
     27 C         140.3269  140.7199  161.6504 C.ar    1  UNL1        0.0046
     28 C         140.8914  139.9706  162.8208 C.ar    1  UNL1        0.0537
     29 C         141.7594  138.7685  162.5937 C.ar    1  UNL1        0.0046
     30 C         142.0628  138.3157  161.1962 C.ar    1  UNL1        0.0017
     31 C         140.5880  140.4233  164.2183 C.2     1  UNL1        0.2505
     32 O         139.6116  141.5382  164.4501 O.2     1  UNL1       -0.2698
     33 N         141.2609  139.7611  165.3839 N.am    1  UNL1       -0.2658
     34 H         141.9017  139.0294  165.2317 H       1  UNL1        0.1566
     35 C         140.9575  140.2138  166.7814 C.ar    1  UNL1        0.1343
     36 C         141.9317  141.0871  167.5151 C.ar    1  UNL1        0.0383
     37 C         141.6282  141.5397  168.9126 C.ar    1  UNL1        0.0757
     38 C         140.3506  141.1190  169.5765 C.ar    1  UNL1        0.0246
     39 C         139.3764  140.2457  168.8428 C.ar    1  UNL1        0.1003
     40 N         139.6799  139.7931  167.4452 N.ar    1  UNL1       -0.2290
     41 C         142.6024  142.4130  169.6462 C.3     1  UNL1        0.4187
     42 F         143.5766  143.2864  170.3799 F       1  UNL1       -0.1659
     43 F         143.6137  141.3055  169.6219 F       1  UNL1       -0.1659
     44 F         141.5911  143.5207  169.6706 F       1  UNL1       -0.1659
@<TRIPOS>UNITY_ATOM_ATTR
23 1
charge -1
@<TRIPOS>BOND
     1    19    20    1
     2    20    21    1
     3    13    20    1
     4    13    22    1
     5    22    23   ar
     6    22    24   ar
     7    13    14    1
     8    14    15    1
     9    15    16    1
    10    16    17    1
    11    16     1    1
    12     1     2   ar
    13     2     3   ar
    14     3    25    1
    15    25    26   ar
    16    26    27   ar
    17    27    28   ar
    18    28    31    1
    19    31    32    2
    20    31    33   am
    21    33    35    1
    22    35    36   ar
    23    36    37   ar
    24    37    41    1
    25    41    42    1
    26    41    43    1
    27    41    44    1
    28    37    38   ar
    29    38    39   ar
    30    39    40   ar
    31    28    29   ar
    32    29    30   ar
    33     3     4   ar
    34     4     5   ar
    35     5     6    1
    36     5     7   ar
    37     7     8   ar
    38     8     9   ar
    39     9    10   ar
    40    16    18    1
    41    18    13    1
    42    10     1   ar
    43    30    25   ar
    44    10     4   ar
    45    40    35   ar
    46    33    34    1
    47     6    11    1
    48     6    12    1
@<TRIPOS>MOLECULE
*****
 44 48 0 0 0
SMALL
GASTEIGER

@<TRIPOS>ATOM
      1 C         140.5685  141.8589  165.1110 C.ar    1  UNL1        0.1235
      2 N         141.4805  142.2726  163.9943 N.ar    1  UNL1       -0.2305
      3 C         141.4762  141.1821  162.9643 C.ar    1  UNL1        0.1013
      4 C         140.5615  140.0946  163.4444 C.ar    1  UNL1        0.1141
      5 C         140.1669  138.7774  162.8449 C.ar    1  UNL1        0.1432
      6 N         140.7279  138.3591  161.5181 N.pl3   1  UNL1       -0.3414
      7 N         139.2113  137.8786  163.5721 N.ar    1  UNL1       -0.2265
      8 C         138.6503  138.2969  164.8989 C.ar    1  UNL1        0.1193
      9 C         139.0449  139.6140  165.4984 C.ar    1  UNL1        0.1020
     10 N         140.0004  140.5129  164.7712 N.ar    1  UNL1       -0.2885
     11 H         141.3551  138.9491  161.0408 H       1  UNL1        0.1438
     12 H         140.4690  137.4947  161.1246 H       1  UNL1        0.1438
     13 C         141.2000  141.9554  168.4834 C.3     1  UNL1        0.0325
     14 C         140.3885  143.1959  168.7128 C.3     1  UNL1        0.0056
     15 C         139.8172  143.6265  167.3942 C.3     1  UNL1        0.0074
     16 C         140.2758  142.6521  166.3500 C.3     1  UNL1        0.0514
     17 C         139.4824  143.5190  165.4179 C.3     1  UNL1        0.0075
     18 C         141.1304  141.6193  167.0232 C.3     1  UNL1        0.0123
     19 C         140.7598  141.0831  170.8907 C.3     1  UNL1        0.0004
     20 C         141.4503  142.0357  169.9602 C.3     1  UNL1        0.0049
     21 C         142.3909  143.0686  170.5065 C.3     1  UNL1        0.0004
     22 C         142.0639  140.7317  168.5628 C.2     1  UNL1        0.0497
     23 O         143.4410  140.8228  169.1505 O.co2   1  UNL1       -0.5492
     24 O         141.5507  139.4171  168.0546 O.co2   1  UNL1       -0.5492
     25 C         142.2506  141.1796  161.6797 C.ar    1  UNL1        0.0192
     26 C         141.8013  142.0339  160.5314 C.ar    1  UNL1        0.0017
     27 C         142.5758  142.0314  159.2467 C.ar    1  UNL1        0.0046
     28 C         143.7995  141.1747  159.1104 C.ar    1  UNL1        0.0537
     29 C         144.2488  140.3205  160.2586 C.ar    1  UNL1        0.0046
     30 C         143.4743  140.3230  161.5432 C.ar    1  UNL1        0.0017
     31 C         144.5739  141.1722  157.8257 C.2     1  UNL1        0.2505
     32 O         144.7036  139.9070  157.0306 O.2     1  UNL1       -0.2698
     33 N         145.2187  142.4351  157.3363 N.am    1  UNL1       -0.2658
     34 H         145.1335  143.2655  157.8583 H       1  UNL1        0.1566
     35 C         145.9931  142.4327  156.0517 C.ar    1  UNL1        0.1343
     36 C         147.4469  142.0630  156.0530 C.ar    1  UNL1        0.0383
     37 C         148.2212  142.0606  154.7683 C.ar    1  UNL1        0.0757
     38 C         147.5419  142.4279  153.4824 C.ar    1  UNL1        0.0246
     39 C         146.0882  142.7976  153.4811 C.ar    1  UNL1        0.1003
     40 N         145.3138  142.8000  154.7658 N.ar    1  UNL1       -0.2290
     41 C         149.6749  141.6910  154.7696 C.3     1  UNL1        0.4187
     42 F         151.1288  141.3213  154.7711 F       1  UNL1       -0.1659
     43 F         149.5840  141.3277  153.3172 F       1  UNL1       -0.1659
     44 F         149.7660  142.0542  156.2222 F       1  UNL1       -0.1659
@<TRIPOS>UNITY_ATOM_ATTR
23 1
charge -1
@<TRIPOS>BOND
     1    19    20    1
     2    20    21    1
     3    13    20    1
     4    13    22    1
     5    22    23   ar
     6    22    24   ar
     7    13    14    1
     8    14    15    1
     9    15    16    1
    10    16    17    1
    11    16     1    1
    12     1     2   ar
    13     2     3   ar
    14     3    25    1
    15    25    26   ar
    16    26    27   ar
    17    27    28   ar
    18    28    31    1
    19    31    32    2
    20    31    33   am
    21    33    35    1
    22    35    36   ar
    23    36    37   ar
    24    37    41    1
    25    41    42    1
    26    41    43    1
    27    41    44    1
    28    37    38   ar
    29    38    39   ar
    30    39    40   ar
    31    28    29   ar
    32    29    30   ar
    33     3     4   ar
    34     4     5   ar
    35     5     6    1
    36     5     7   ar
    37     7     8   ar
    38     8     9   ar
    39     9    10   ar
    40    16    18    1
    41    18    13    1
    42    10     1   ar
    43    30    25   ar
    44    10     4   ar
    45    40    35   ar
    46    33    34    1
    47     6    11    1
    48     6    12    1
@<TRIPOS>MOLECULE
*****
 44 48 0 0 0
SMALL
GASTEIGER

@<TRIPOS>ATOM
      1 C         140.3905  142.2068  163.2576 C.ar    1  UNL1        0.1235
      2 N         141.5119  142.6275  162.3545 N.ar    1  UNL1       -0.2305
      3 C         141.4151  141.8251  161.0908 C.ar    1  UNL1        0.1013
      4 C         140.2340  140.9086  161.2129 C.ar    1  UNL1        0.1141
      5 C         139.6533  139.8898  160.2777 C.ar    1  UNL1        0.1432
      6 N         140.2866  139.6539  158.9385 N.pl3   1  UNL1       -0.3414
      7 N         138.4393  139.1068  160.6816 N.ar    1  UNL1       -0.2265
      8 C         137.8061  139.3427  162.0207 C.ar    1  UNL1        0.1193
      9 C         138.3867  140.3615  162.9560 C.ar    1  UNL1        0.1020
     10 N         139.6007  141.1445  162.5520 N.ar    1  UNL1       -0.2885
     11 H         141.0833  140.1678  158.6734 H       1  UNL1        0.1438
     12 H         139.9054  138.9852  158.3247 H       1  UNL1        0.1438
     13 C         141.3024  141.8798  166.5504 C.3     1  UNL1        0.0325
     14 C         140.3594  142.9420  167.0327 C.3     1  UNL1        0.0056
     15 C         139.6214  143.4814  165.8432 C.3     1  UNL1        0.0074
     16 C         140.1084  142.7526  164.6260 C.3     1  UNL1        0.0514
     17 C         139.1285  143.6283  163.9029 C.3     1  UNL1        0.0075
     18 C         141.1473  141.7627  165.0631 C.3     1  UNL1        0.0123
     19 C         143.0162  142.2385  168.4699 C.3     1  UNL1        0.0004
     20 C         141.6708  141.7701  168.0004 C.3     1  UNL1        0.0049
     21 C         140.6937  141.1920  168.9808 C.3     1  UNL1        0.0004
     22 C         142.3224  140.7947  166.3714 C.2     1  UNL1        0.0497
     23 O         142.0958  139.4440  166.9833 O.co2   1  UNL1       -0.5492
     24 O         143.5690  141.0603  165.5805 O.co2   1  UNL1       -0.5492
     25 C         142.3376  141.9223  159.9120 C.ar    1  UNL1        0.0192
     26 C         142.1616  143.0254  158.9108 C.ar    1  UNL1        0.0017
     27 C         143.0841  143.1226  157.7320 C.ar    1  UNL1        0.0046
     28 C         144.1825  142.1166  157.5543 C.ar    1  UNL1        0.0537
     29 C         144.3584  141.0135  158.5554 C.ar    1  UNL1        0.0046
     30 C         143.4359  140.9164  159.7342 C.ar    1  UNL1        0.0017
     31 C         145.1049  142.2137  156.3754 C.2     1  UNL1        0.2505
     32 O         144.7017  141.6231  155.0569 O.2     1  UNL1       -0.2698
     33 N         146.4306  142.9015  156.5152 N.am    1  UNL1       -0.2658
     34 H         146.6952  143.2891  157.3807 H       1  UNL1        0.1566
     35 C         147.3531  142.9987  155.3364 C.ar    1  UNL1        0.1343
     36 C         148.5113  142.0538  155.2105 C.ar    1  UNL1        0.0383
     37 C         149.4338  142.1511  154.0316 C.ar    1  UNL1        0.0757
     38 C         149.1981  143.1932  152.9788 C.ar    1  UNL1        0.0246
     39 C         148.0399  144.1380  153.1048 C.ar    1  UNL1        0.1003
     40 N         147.1174  144.0407  154.2836 N.ar    1  UNL1       -0.2290
     41 C         150.5919  141.2062  153.9058 C.3     1  UNL1        0.4187
     42 F         151.7502  140.2613  153.7799 F       1  UNL1       -0.1659
     43 F         150.0113  140.6639  152.6335 F       1  UNL1       -0.1659
     44 F         151.1726  141.7485  155.1781 F       1  UNL1       -0.1659
@<TRIPOS>UNITY_ATOM_ATTR
23 1
charge -1
@<TRIPOS>BOND
     1    19    20    1
     2    20    21    1
     3    13    20    1
     4    13    22    1
     5    22    23   ar
     6    22    24   ar
     7    13    14    1
     8    14    15    1
     9    15    16    1
    10    16    17    1
    11    16     1    1
    12     1     2   ar
    13     2     3   ar
    14     3    25    1
    15    25    26   ar
    16    26    27   ar
    17    27    28   ar
    18    28    31    1
    19    31    32    2
    20    31    33   am
    21    33    35    1
    22    35    36   ar
    23    36    37   ar
    24    37    41    1
    25    41    42    1
    26    41    43    1
    27    41    44    1
    28    37    38   ar
    29    38    39   ar
    30    39    40   ar
    31    28    29   ar
    32    29    30   ar
    33     3     4   ar
    34     4     5   ar
    35     5     6    1
    36     5     7   ar
    37     7     8   ar
    38     8     9   ar
    39     9    10   ar
    40    16    18    1
    41    18    13    1
    42    10     1   ar
    43    30    25   ar
    44    10     4   ar
    45    40    35   ar
    46    33    34    1
    47     6    11    1
    48     6    12    1
