@<TRIPOS>MOLECULE
*****
 32 36 0 0 0
SMALL
GASTEIGER

@<TRIPOS>ATOM
      1 C         143.2241  143.4359  162.7865 C.2     1  UNL1        0.1157
      2 N         143.3968  143.5710  161.3026 N.2     1  UNL1       -0.1790
      3 N         142.0343  143.6873  160.6862 N.pl3   1  UNL1       -0.2061
      4 C         141.5866  143.8426  159.2629 C.ar    1  UNL1        0.1026
      5 C         142.6014  143.9057  158.1601 C.ar    1  UNL1        0.0151
      6 C         142.1536  144.0610  156.7370 C.ar    1  UNL1       -0.0204
      7 C         143.1684  144.1241  155.6341 C.3     1  UNL1        0.0311
      8 C         140.6911  144.1531  156.4167 C.ar    1  UNL1       -0.0011
      9 C         139.6763  144.0899  157.5195 C.ar    1  UNL1        0.0379
     10 C         140.1241  143.9347  158.9426 C.ar    1  UNL1        0.1535
     11 O         139.1093  143.8715  160.0455 O.3     1  UNL1       -0.4723
     12 C         139.5571  143.7162  161.4687 C.3     1  UNL1        0.2277
     13 C         141.0196  143.6241  161.7890 C.3     1  UNL1        0.1488
     14 C         141.7549  143.4688  163.0871 C.3     1  UNL1        0.0806
     15 C         140.3794  143.4692  163.6852 C.ar    1  UNL1       -0.0157
     16 C         139.8595  144.6985  164.3697 C.ar    1  UNL1       -0.0039
     17 C         138.4839  144.6989  164.9679 C.ar    1  UNL1       -0.0003
     18 C         137.6281  143.4700  164.8815 C.ar    1  UNL1       -0.0000
     19 C         138.1479  142.2407  164.1970 C.ar    1  UNL1       -0.0003
     20 C         139.5236  142.2402  163.5988 C.ar    1  UNL1       -0.0039
     21 C         145.2281  142.0946  163.7535 C.3     1  UNL1        0.0786
     22 C         144.3271  143.2931  163.7932 C.2     1  UNL1        0.1887
     23 O         144.5289  144.3488  164.8394 O.2     1  UNL1       -0.2900
     24 C         142.2027  143.3135  164.5103 C.3     1  UNL1        0.0130
     25 C         141.8070  142.0963  165.2925 C.3     1  UNL1        0.0181
     26 C         142.5693  141.7181  166.5277 C.3     1  UNL1        0.0723
     27 N         142.1753  142.2907  167.8570 N.3     1  UNL1       -0.2685
     28 C         140.7803  142.7989  168.0709 C.3     1  UNL1        0.1046
     29 C         140.3863  143.3715  169.4001 C.3     1  UNL1        0.1595
     30 O         141.3873  143.4360  170.5155 O.3     1  UNL1       -0.3508
     31 C         142.7823  142.9279  170.3015 C.3     1  UNL1        0.1595
     32 C         143.1763  142.3552  168.9722 C.3     1  UNL1        0.1046
@<TRIPOS>BOND
     1    21    22    1
     2    22    23    2
     3    22     1    1
     4     1     2    2
     5     2     3    1
     6     3     4    1
     7     4     5   ar
     8     5     6   ar
     9     6     7    1
    10     6     8   ar
    11     8     9   ar
    12     9    10   ar
    13    10    11    1
    14    11    12    1
    15    13    12    1
    16    13    14    1
    17    14    24    1
    18    24    25    1
    19    25    26    1
    20    26    27    1
    21    27    28    1
    22    28    29    1
    23    29    30    1
    24    30    31    1
    25    31    32    1
    26    14    15    1
    27    15    16   ar
    28    16    17   ar
    29    17    18   ar
    30    18    19   ar
    31    19    20   ar
    32    14     1    1
    33    32    27    1
    34    20    15   ar
    35    13     3    1
    36    10     4   ar
@<TRIPOS>MOLECULE
*****
 32 36 0 0 0
SMALL
GASTEIGER

@<TRIPOS>ATOM
      1 C         139.5783  144.2381  163.2260 C.2     1  UNL1        0.1157
      2 N         139.3878  144.7610  161.8330 N.2     1  UNL1       -0.1790
      3 N         140.6290  144.4538  161.0488 N.pl3   1  UNL1       -0.2061
      4 C         141.0109  144.7310  159.6250 C.ar    1  UNL1        0.1026
      5 C         140.0533  145.4438  158.7168 C.ar    1  UNL1        0.0151
      6 C         140.4353  145.7210  157.2930 C.ar    1  UNL1       -0.0204
      7 C         139.4776  146.4338  156.3847 C.3     1  UNL1        0.0311
      8 C         141.7748  145.2854  156.7774 C.ar    1  UNL1       -0.0011
      9 C         142.7324  144.5726  157.6856 C.ar    1  UNL1        0.0379
     10 C         142.3505  144.2954  159.1094 C.ar    1  UNL1        0.1535
     11 O         143.3081  143.5826  160.0176 O.3     1  UNL1       -0.4723
     12 C         142.9261  143.3054  161.4414 C.3     1  UNL1        0.2277
     13 C         141.5866  143.7410  161.9570 C.3     1  UNL1        0.1488
     14 C         140.9372  143.6077  163.3026 C.3     1  UNL1        0.0806
     15 C         142.2163  142.9193  163.6769 C.ar    1  UNL1       -0.0157
     16 C         142.4223  141.4761  163.3240 C.ar    1  UNL1       -0.0039
     17 C         143.7015  140.7876  163.6983 C.ar    1  UNL1       -0.0003
     18 C         144.7745  141.5425  164.4255 C.ar    1  UNL1       -0.0000
     19 C         144.5684  142.9857  164.7785 C.ar    1  UNL1       -0.0003
     20 C         143.2893  143.6742  164.4042 C.ar    1  UNL1       -0.0039
     21 C         137.3488  143.4794  164.3232 C.3     1  UNL1        0.0786
     22 C         138.5844  144.3296  164.3457 C.2     1  UNL1        0.1887
     23 O         138.8260  145.2713  165.4880 O.2     1  UNL1       -0.2900
     24 C         140.5553  143.3305  164.7265 C.3     1  UNL1        0.0130
     25 C         140.3921  141.9157  165.1974 C.3     1  UNL1        0.0181
     26 C         140.0831  141.6358  166.6382 C.3     1  UNL1        0.0723
     27 N         141.0102  142.1226  167.7124 N.3     1  UNL1       -0.2685
     28 C         140.4672  142.8935  168.8790 C.3     1  UNL1        0.1046
     29 C         141.3941  143.3803  169.9531 C.3     1  UNL1        0.1595
     30 O         142.8641  143.0962  169.8607 O.3     1  UNL1       -0.3508
     31 C         143.4071  142.3253  168.6941 C.3     1  UNL1        0.1595
     32 C         142.4801  141.8385  167.6200 C.3     1  UNL1        0.1046
@<TRIPOS>BOND
     1    21    22    1
     2    22    23    2
     3    22     1    1
     4     1     2    2
     5     2     3    1
     6     3     4    1
     7     4     5   ar
     8     5     6   ar
     9     6     7    1
    10     6     8   ar
    11     8     9   ar
    12     9    10   ar
    13    10    11    1
    14    11    12    1
    15    13    12    1
    16    13    14    1
    17    14    24    1
    18    24    25    1
    19    25    26    1
    20    26    27    1
    21    27    28    1
    22    28    29    1
    23    29    30    1
    24    30    31    1
    25    31    32    1
    26    14    15    1
    27    15    16   ar
    28    16    17   ar
    29    17    18   ar
    30    18    19   ar
    31    19    20   ar
    32    14     1    1
    33    32    27    1
    34    20    15   ar
    35    13     3    1
    36    10     4   ar
@<TRIPOS>MOLECULE
*****
 32 36 0 0 0
SMALL
GASTEIGER

@<TRIPOS>ATOM
      1 C         143.6806  139.6955  163.0034 C.2     1  UNL1        0.1157
      2 N         143.7743  139.3819  161.5395 N.2     1  UNL1       -0.1790
      3 N         142.3854  139.1396  161.0276 N.pl3   1  UNL1       -0.2061
      4 C         141.8647  138.7909  159.6647 C.ar    1  UNL1        0.1026
      5 C         142.8168  138.6272  158.5173 C.ar    1  UNL1        0.0151
      6 C         142.2960  138.2785  157.1545 C.ar    1  UNL1       -0.0204
      7 C         143.2482  138.1148  156.0070 C.3     1  UNL1        0.0311
      8 C         140.8231  138.0936  156.9392 C.ar    1  UNL1       -0.0011
      9 C         139.8710  138.2574  158.0866 C.ar    1  UNL1        0.0379
     10 C         140.3918  138.6060  159.4493 C.ar    1  UNL1        0.1535
     11 O         139.4396  138.7698  160.5969 O.3     1  UNL1       -0.4723
     12 C         139.9604  139.1184  161.9596 C.3     1  UNL1        0.2277
     13 C         141.4333  139.3033  162.1750 C.3     1  UNL1        0.1488
     14 C         142.2338  139.6469  163.3961 C.3     1  UNL1        0.0806
     15 C         140.8958  139.6712  164.0738 C.ar    1  UNL1       -0.0157
     16 C         140.4430  138.4916  164.8821 C.ar    1  UNL1       -0.0039
     17 C         139.1050  138.5158  165.5598 C.ar    1  UNL1       -0.0003
     18 C         138.2198  139.7198  165.4292 C.ar    1  UNL1       -0.0000
     19 C         138.6726  140.8994  164.6209 C.ar    1  UNL1       -0.0003
     20 C         140.0107  140.8752  163.9431 C.ar    1  UNL1       -0.0039
     21 C         145.5820  141.2937  163.7652 C.3     1  UNL1        0.0786
     22 C         144.8317  140.0035  163.9146 C.2     1  UNL1        0.1887
     23 O         145.2324  139.0213  164.9751 O.2     1  UNL1       -0.2900
     24 C         142.7545  139.9956  164.7590 C.3     1  UNL1        0.0130
     25 C         142.4547  141.3388  165.3554 C.3     1  UNL1        0.0181
     26 C         142.7597  141.6029  166.8001 C.3     1  UNL1        0.0723
     27 N         141.9546  140.9295  167.8718 N.3     1  UNL1       -0.2685
     28 C         142.6387  140.0806  168.9021 C.3     1  UNL1        0.1046
     29 C         141.8338  139.4073  169.9738 C.3     1  UNL1        0.1595
     30 O         140.3446  139.5829  170.0153 O.3     1  UNL1       -0.3508
     31 C         139.6605  140.4318  168.9851 C.3     1  UNL1        0.1595
     32 C         140.4655  141.1051  167.9133 C.3     1  UNL1        0.1046
@<TRIPOS>BOND
     1    21    22    1
     2    22    23    2
     3    22     1    1
     4     1     2    2
     5     2     3    1
     6     3     4    1
     7     4     5   ar
     8     5     6   ar
     9     6     7    1
    10     6     8   ar
    11     8     9   ar
    12     9    10   ar
    13    10    11    1
    14    11    12    1
    15    13    12    1
    16    13    14    1
    17    14    24    1
    18    24    25    1
    19    25    26    1
    20    26    27    1
    21    27    28    1
    22    28    29    1
    23    29    30    1
    24    30    31    1
    25    31    32    1
    26    14    15    1
    27    15    16   ar
    28    16    17   ar
    29    17    18   ar
    30    18    19   ar
    31    19    20   ar
    32    14     1    1
    33    32    27    1
    34    20    15   ar
    35    13     3    1
    36    10     4   ar
@<TRIPOS>MOLECULE
*****
 32 36 0 0 0
SMALL
GASTEIGER

@<TRIPOS>ATOM
      1 C         140.5805  138.8124  164.1134 C.2     1  UNL1        0.1157
      2 N         139.8518  138.9080  165.4210 N.2     1  UNL1       -0.1790
      3 N         140.5544  139.9258  166.2698 N.pl3   1  UNL1       -0.2061
      4 C         140.2854  140.4358  167.6546 C.ar    1  UNL1        0.1026
      5 C         139.1225  139.9024  168.4376 C.ar    1  UNL1        0.0151
      6 C         138.8536  140.4123  169.8223 C.ar    1  UNL1       -0.0204
      7 C         137.6906  139.8789  170.6054 C.3     1  UNL1        0.0311
      8 C         139.7476  141.4558  170.4241 C.ar    1  UNL1       -0.0011
      9 C         140.9104  141.9892  169.6411 C.ar    1  UNL1        0.0379
     10 C         141.1794  141.4792  168.2564 C.ar    1  UNL1        0.1535
     11 O         142.3423  142.0126  167.4733 O.3     1  UNL1       -0.4723
     12 C         142.6112  141.5026  166.0886 C.3     1  UNL1        0.2277
     13 C         141.7173  140.4592  165.4868 C.3     1  UNL1        0.1488
     14 C         141.7334  139.7711  164.1541 C.3     1  UNL1        0.0806
     15 C         142.9426  140.6232  163.9052 C.ar    1  UNL1       -0.0157
     16 C         144.3154  140.0316  164.0294 C.ar    1  UNL1       -0.0039
     17 C         145.5246  140.8837  163.7805 C.ar    1  UNL1       -0.0003
     18 C         145.3610  142.3273  163.4075 C.ar    1  UNL1       -0.0000
     19 C         143.9882  142.9189  163.2834 C.ar    1  UNL1       -0.0003
     20 C         142.7789  142.0668  163.5323 C.ar    1  UNL1       -0.0039
     21 C         138.8676  138.0241  162.3261 C.3     1  UNL1        0.0786
     22 C         140.2196  137.9155  162.9664 C.2     1  UNL1        0.1887
     23 O         141.2109  136.9101  162.4599 O.2     1  UNL1       -0.2900
     24 C         142.0024  139.2611  162.7692 C.3     1  UNL1        0.0130
     25 C         142.0904  140.2214  161.6203 C.3     1  UNL1        0.0181
     26 C         140.8597  140.5662  160.8352 C.3     1  UNL1        0.0723
     27 N         140.0909  141.8138  161.1554 N.3     1  UNL1       -0.2685
     28 C         138.7844  141.7228  161.8867 C.3     1  UNL1        0.1046
     29 C         138.0156  142.9703  162.2069 C.3     1  UNL1        0.1595
     30 O         138.5532  144.3090  161.7959 O.3     1  UNL1       -0.3508
     31 C         139.8597  144.4000  161.0646 C.3     1  UNL1        0.1595
     32 C         140.6286  143.1524  160.7444 C.3     1  UNL1        0.1046
@<TRIPOS>BOND
     1    21    22    1
     2    22    23    2
     3    22     1    1
     4     1     2    2
     5     2     3    1
     6     3     4    1
     7     4     5   ar
     8     5     6   ar
     9     6     7    1
    10     6     8   ar
    11     8     9   ar
    12     9    10   ar
    13    10    11    1
    14    11    12    1
    15    13    12    1
    16    13    14    1
    17    14    24    1
    18    24    25    1
    19    25    26    1
    20    26    27    1
    21    27    28    1
    22    28    29    1
    23    29    30    1
    24    30    31    1
    25    31    32    1
    26    14    15    1
    27    15    16   ar
    28    16    17   ar
    29    17    18   ar
    30    18    19   ar
    31    19    20   ar
    32    14     1    1
    33    32    27    1
    34    20    15   ar
    35    13     3    1
    36    10     4   ar
@<TRIPOS>MOLECULE
*****
 32 36 0 0 0
SMALL
GASTEIGER

@<TRIPOS>ATOM
      1 C         139.5814  144.2346  163.1815 C.2     1  UNL1        0.1157
      2 N         139.3911  144.8035  161.8066 N.2     1  UNL1       -0.1790
      3 N         140.6183  144.4922  161.0023 N.pl3   1  UNL1       -0.2061
      4 C         140.9944  144.8037  159.5840 C.ar    1  UNL1        0.1026
      5 C         140.0456  145.5649  158.7063 C.ar    1  UNL1        0.0151
      6 C         140.4218  145.8763  157.2881 C.ar    1  UNL1       -0.0204
      7 C         139.4730  146.6376  156.4104 C.3     1  UNL1        0.0311
      8 C         141.7467  145.4265  156.7475 C.ar    1  UNL1       -0.0011
      9 C         142.6954  144.6652  157.6251 C.ar    1  UNL1        0.0379
     10 C         142.3193  144.3538  159.0433 C.ar    1  UNL1        0.1535
     11 O         143.2681  143.5925  159.9211 O.3     1  UNL1       -0.4723
     12 C         142.8919  143.2811  161.3393 C.3     1  UNL1        0.2277
     13 C         141.5670  143.7310  161.8799 C.3     1  UNL1        0.1488
     14 C         140.9262  143.5717  163.2268 C.3     1  UNL1        0.0806
     15 C         142.1924  142.8438  163.5686 C.ar    1  UNL1       -0.0157
     16 C         142.3934  141.4310  163.1063 C.ar    1  UNL1       -0.0039
     17 C         143.6596  140.7030  163.4481 C.ar    1  UNL1       -0.0003
     18 C         144.7248  141.3878  164.2522 C.ar    1  UNL1       -0.0000
     19 C         144.5238  142.8005  164.7145 C.ar    1  UNL1       -0.0003
     20 C         143.2575  143.5285  164.3727 C.ar    1  UNL1       -0.0039
     21 C         137.3441  143.4940  164.2753 C.3     1  UNL1        0.0786
     22 C         138.5992  144.3145  164.3125 C.2     1  UNL1        0.1887
     23 O         138.8723  145.2149  165.4806 O.2     1  UNL1       -0.2900
     24 C         140.5501  143.2603  164.6451 C.3     1  UNL1        0.0130
     25 C         140.3000  141.8408  165.0603 C.3     1  UNL1        0.0181
     26 C         140.0459  141.5148  166.5022 C.3     1  UNL1        0.0723
     27 N         141.0052  140.6402  167.2538 N.3     1  UNL1       -0.2685
     28 C         142.0662  139.8813  166.5133 C.3     1  UNL1        0.1046
     29 C         143.0256  139.0068  167.2648 C.3     1  UNL1        0.1595
     30 O         142.9239  138.8911  168.7569 O.3     1  UNL1       -0.3508
     31 C         141.8629  139.6499  169.4974 C.3     1  UNL1        0.1595
     32 C         140.9035  140.5245  168.7458 C.3     1  UNL1        0.1046
@<TRIPOS>BOND
     1    21    22    1
     2    22    23    2
     3    22     1    1
     4     1     2    2
     5     2     3    1
     6     3     4    1
     7     4     5   ar
     8     5     6   ar
     9     6     7    1
    10     6     8   ar
    11     8     9   ar
    12     9    10   ar
    13    10    11    1
    14    11    12    1
    15    13    12    1
    16    13    14    1
    17    14    24    1
    18    24    25    1
    19    25    26    1
    20    26    27    1
    21    27    28    1
    22    28    29    1
    23    29    30    1
    24    30    31    1
    25    31    32    1
    26    14    15    1
    27    15    16   ar
    28    16    17   ar
    29    17    18   ar
    30    18    19   ar
    31    19    20   ar
    32    14     1    1
    33    32    27    1
    34    20    15   ar
    35    13     3    1
    36    10     4   ar
@<TRIPOS>MOLECULE
*****
 32 36 0 0 0
SMALL
GASTEIGER

@<TRIPOS>ATOM
      1 C         139.5109  139.3739  162.8920 C.2     1  UNL1        0.1157
      2 N         139.3874  139.1752  161.4104 N.2     1  UNL1       -0.1790
      3 N         139.1141  140.5109  160.7848 N.pl3   1  UNL1       -0.2061
      4 C         138.9007  140.9268  159.3595 C.ar    1  UNL1        0.1026
      5 C         138.9462  139.9026  158.2645 C.ar    1  UNL1        0.0151
      6 C         138.7328  140.3186  156.8393 C.ar    1  UNL1       -0.0204
      7 C         138.7782  139.2944  155.7442 C.3     1  UNL1        0.0311
      8 C         138.4740  141.7587  156.5090 C.ar    1  UNL1       -0.0011
      9 C         138.4285  142.7829  157.6039 C.ar    1  UNL1        0.0379
     10 C         138.6419  142.3669  159.0292 C.ar    1  UNL1        0.1535
     11 O         138.5964  143.3911  160.1242 O.3     1  UNL1       -0.4723
     12 C         138.8098  142.9751  161.5495 C.3     1  UNL1        0.2277
     13 C         139.0686  141.5350  161.8798 C.3     1  UNL1        0.1488
     14 C         139.3139  140.8323  163.1821 C.3     1  UNL1        0.0806
     15 C         139.1615  142.2038  163.7702 C.ar    1  UNL1       -0.0157
     16 C         137.8410  142.6344  164.3366 C.ar    1  UNL1       -0.0039
     17 C         137.6885  144.0060  164.9247 C.ar    1  UNL1       -0.0003
     18 C         138.8566  144.9468  164.9465 C.ar    1  UNL1       -0.0000
     19 C         140.1771  144.5161  164.3801 C.ar    1  UNL1       -0.0003
     20 C         140.3296  143.1446  163.7920 C.ar    1  UNL1       -0.0039
     21 C         141.1273  137.6373  163.9510 C.3     1  UNL1        0.0786
     22 C         139.7835  138.3023  163.9056 C.2     1  UNL1        0.1887
     23 O         138.7124  137.8957  164.8738 O.2     1  UNL1       -0.2900
     24 C         139.5273  140.4164  164.6075 C.3     1  UNL1        0.0130
     25 C         140.7037  140.9433  165.3744 C.3     1  UNL1        0.0181
     26 C         141.0724  140.3338  166.6944 C.3     1  UNL1        0.0723
     27 N         140.4962  140.8881  167.9636 N.3     1  UNL1       -0.2685
     28 C         139.6029  140.0366  168.8163 C.3     1  UNL1        0.1046
     29 C         139.0267  140.5909  170.0855 C.3     1  UNL1        0.1595
     30 O         139.3437  141.9966  170.5020 O.3     1  UNL1       -0.3508
     31 C         140.2370  142.8481  169.6493 C.3     1  UNL1        0.1595
     32 C         140.8132  142.2938  168.3801 C.3     1  UNL1        0.1046
@<TRIPOS>BOND
     1    21    22    1
     2    22    23    2
     3    22     1    1
     4     1     2    2
     5     2     3    1
     6     3     4    1
     7     4     5   ar
     8     5     6   ar
     9     6     7    1
    10     6     8   ar
    11     8     9   ar
    12     9    10   ar
    13    10    11    1
    14    11    12    1
    15    13    12    1
    16    13    14    1
    17    14    24    1
    18    24    25    1
    19    25    26    1
    20    26    27    1
    21    27    28    1
    22    28    29    1
    23    29    30    1
    24    30    31    1
    25    31    32    1
    26    14    15    1
    27    15    16   ar
    28    16    17   ar
    29    17    18   ar
    30    18    19   ar
    31    19    20   ar
    32    14     1    1
    33    32    27    1
    34    20    15   ar
    35    13     3    1
    36    10     4   ar
@<TRIPOS>MOLECULE
*****
 32 36 0 0 0
SMALL
GASTEIGER

@<TRIPOS>ATOM
      1 C         139.7189  143.3939  163.8138 C.2     1  UNL1        0.1157
      2 N         140.3850  143.4621  165.1561 N.2     1  UNL1       -0.1790
      3 N         140.7615  142.0669  165.5580 N.pl3   1  UNL1       -0.2061
      4 C         141.4430  141.5234  166.7789 C.ar    1  UNL1        0.1026
      5 C         141.8763  142.4539  167.8727 C.ar    1  UNL1        0.0151
      6 C         142.5578  141.9105  169.0934 C.ar    1  UNL1       -0.0204
      7 C         142.9911  142.8409  170.1873 C.3     1  UNL1        0.0311
      8 C         142.8059  140.4366  169.2204 C.ar    1  UNL1       -0.0011
      9 C         142.3726  139.5061  168.1266 C.ar    1  UNL1        0.0379
     10 C         141.6911  140.0496  166.9058 C.ar    1  UNL1        0.1535
     11 O         141.2577  139.1191  165.8119 O.3     1  UNL1       -0.4723
     12 C         140.5763  139.6625  164.5912 C.3     1  UNL1        0.2277
     13 C         140.3282  141.1364  164.4642 C.3     1  UNL1        0.1488
     14 C         139.6838  141.9566  163.3862 C.3     1  UNL1        0.0806
     15 C         139.5062  140.6329  162.7034 C.ar    1  UNL1       -0.0157
     16 C         140.6551  140.0077  161.9691 C.ar    1  UNL1       -0.0039
     17 C         140.4776  138.6839  161.2863 C.ar    1  UNL1       -0.0003
     18 C         139.1511  137.9854  161.3378 C.ar    1  UNL1       -0.0000
     19 C         138.0022  138.6106  162.0721 C.ar    1  UNL1       -0.0003
     20 C         138.1798  139.9344  162.7549 C.ar    1  UNL1       -0.0039
     21 C         140.1187  145.6084  162.5153 C.3     1  UNL1        0.0786
     22 C         139.1822  144.5586  163.0357 C.2     1  UNL1        0.1887
     23 O         137.7090  144.6735  162.7780 O.2     1  UNL1       -0.2900
     24 C         139.0023  142.5000  162.1654 C.3     1  UNL1        0.0130
     25 C         139.6851  142.4302  160.8317 C.3     1  UNL1        0.0181
     26 C         138.8843  142.5693  159.5710 C.3     1  UNL1        0.0723
     27 N         139.2766  143.5876  158.5418 N.3     1  UNL1       -0.2685
     28 C         140.1256  144.7607  158.9329 C.3     1  UNL1        0.1046
     29 C         140.5179  145.7790  157.9038 C.3     1  UNL1        0.1595
     30 O         140.0612  145.6242  156.4834 O.3     1  UNL1       -0.3508
     31 C         139.2122  144.4511  156.0922 C.3     1  UNL1        0.1595
     32 C         138.8199  143.4328  157.1214 C.3     1  UNL1        0.1046
@<TRIPOS>BOND
     1    21    22    1
     2    22    23    2
     3    22     1    1
     4     1     2    2
     5     2     3    1
     6     3     4    1
     7     4     5   ar
     8     5     6   ar
     9     6     7    1
    10     6     8   ar
    11     8     9   ar
    12     9    10   ar
    13    10    11    1
    14    11    12    1
    15    13    12    1
    16    13    14    1
    17    14    24    1
    18    24    25    1
    19    25    26    1
    20    26    27    1
    21    27    28    1
    22    28    29    1
    23    29    30    1
    24    30    31    1
    25    31    32    1
    26    14    15    1
    27    15    16   ar
    28    16    17   ar
    29    17    18   ar
    30    18    19   ar
    31    19    20   ar
    32    14     1    1
    33    32    27    1
    34    20    15   ar
    35    13     3    1
    36    10     4   ar
@<TRIPOS>MOLECULE
*****
 32 36 0 0 0
SMALL
GASTEIGER

@<TRIPOS>ATOM
      1 C         138.9619  143.1464  163.0130 C.2     1  UNL1        0.1157
      2 N         138.6917  143.3726  161.5550 N.2     1  UNL1       -0.1790
      3 N         138.8173  142.0544  160.8504 N.pl3   1  UNL1       -0.2061
      4 C         138.6599  141.6674  159.4097 C.ar    1  UNL1        0.1026
      5 C         138.3120  142.7083  158.3872 C.ar    1  UNL1        0.0151
      6 C         138.1546  142.3213  156.9466 C.ar    1  UNL1       -0.0204
      7 C         137.8068  143.3622  155.9240 C.3     1  UNL1        0.0311
      8 C         138.3451  140.8934  156.5285 C.ar    1  UNL1       -0.0011
      9 C         138.6929  139.8525  157.5510 C.ar    1  UNL1        0.0379
     10 C         138.8503  140.2395  158.9916 C.ar    1  UNL1        0.1535
     11 O         139.1982  139.1986  160.0142 O.3     1  UNL1       -0.4723
     12 C         139.3556  139.5856  161.4548 C.3     1  UNL1        0.2277
     13 C         139.1652  141.0135  161.8729 C.3     1  UNL1        0.1488
     14 C         139.2545  141.6885  163.2095 C.3     1  UNL1        0.0806
     15 C         139.5801  140.3114  163.7071 C.ar    1  UNL1       -0.0157
     16 C         138.5240  139.4899  164.3854 C.ar    1  UNL1       -0.0039
     17 C         138.8495  138.1128  164.8831 C.ar    1  UNL1       -0.0003
     18 C         140.2311  137.5571  164.7025 C.ar    1  UNL1       -0.0000
     19 C         141.2871  138.3786  164.0242 C.ar    1  UNL1       -0.0003
     20 C         140.9616  139.7557  163.5265 C.ar    1  UNL1       -0.0039
     21 C         137.7220  144.3719  164.9394 C.3     1  UNL1        0.0786
     22 C         138.9428  144.1943  164.0862 C.2     1  UNL1        0.1887
     23 O         140.1446  145.0646  164.3061 O.2     1  UNL1       -0.2900
     24 C         139.4119  142.0755  164.6502 C.3     1  UNL1        0.0130
     25 C         140.7149  141.8349  165.3533 C.3     1  UNL1        0.0181
     26 C         141.0496  142.6049  166.5963 C.3     1  UNL1        0.0723
     27 N         140.4783  142.1819  167.9172 N.3     1  UNL1       -0.2685
     28 C         140.4652  143.1410  169.0704 C.3     1  UNL1        0.1046
     29 C         139.8940  142.7181  170.3913 C.3     1  UNL1        0.1595
     30 O         139.3359  141.3359  170.5591 O.3     1  UNL1       -0.3508
     31 C         139.3489  140.3767  169.4059 C.3     1  UNL1        0.1595
     32 C         139.9202  140.7997  168.0849 C.3     1  UNL1        0.1046
@<TRIPOS>BOND
     1    21    22    1
     2    22    23    2
     3    22     1    1
     4     1     2    2
     5     2     3    1
     6     3     4    1
     7     4     5   ar
     8     5     6   ar
     9     6     7    1
    10     6     8   ar
    11     8     9   ar
    12     9    10   ar
    13    10    11    1
    14    11    12    1
    15    13    12    1
    16    13    14    1
    17    14    24    1
    18    24    25    1
    19    25    26    1
    20    26    27    1
    21    27    28    1
    22    28    29    1
    23    29    30    1
    24    30    31    1
    25    31    32    1
    26    14    15    1
    27    15    16   ar
    28    16    17   ar
    29    17    18   ar
    30    18    19   ar
    31    19    20   ar
    32    14     1    1
    33    32    27    1
    34    20    15   ar
    35    13     3    1
    36    10     4   ar
@<TRIPOS>MOLECULE
*****
 32 36 0 0 0
SMALL
GASTEIGER

@<TRIPOS>ATOM
      1 C         143.5718  140.9650  163.7558 C.2     1  UNL1        0.1157
      2 N         143.5828  140.2638  165.0818 N.2     1  UNL1       -0.1790
      3 N         142.4745  140.8335  165.9166 N.pl3   1  UNL1       -0.2061
      4 C         142.0091  140.5291  167.3098 C.ar    1  UNL1        0.1026
      5 C         142.7052  139.4759  168.1197 C.ar    1  UNL1        0.0151
      6 C         142.2399  139.1716  169.5128 C.ar    1  UNL1       -0.0204
      7 C         142.9360  138.1183  170.3229 C.3     1  UNL1        0.0311
      8 C         141.0784  139.9206  170.0960 C.ar    1  UNL1       -0.0011
      9 C         140.3823  140.9738  169.2861 C.ar    1  UNL1        0.0379
     10 C         140.8477  141.2781  167.8929 C.ar    1  UNL1        0.1535
     11 O         140.1516  142.3314  167.0829 O.3     1  UNL1       -0.4723
     12 C         140.6170  142.6357  165.6898 C.3     1  UNL1        0.2277
     13 C         141.7784  141.8867  165.1066 C.3     1  UNL1        0.1488
     14 C         142.4566  141.9680  163.7712 C.3     1  UNL1        0.0806
     15 C         141.4387  143.0347  163.4953 C.ar    1  UNL1       -0.0157
     16 C         141.8343  144.4806  163.5482 C.ar    1  UNL1       -0.0039
     17 C         140.8164  145.5473  163.2723 C.ar    1  UNL1       -0.0003
     18 C         139.4028  145.1681  162.9435 C.ar    1  UNL1       -0.0000
     19 C         139.0072  143.7222  162.8906 C.ar    1  UNL1       -0.0003
     20 C         140.0251  142.6554  163.1665 C.ar    1  UNL1       -0.0039
     21 C         144.3212  139.5017  161.7440 C.3     1  UNL1        0.0786
     22 C         144.5110  140.7082  162.6147 C.2     1  UNL1        0.1887
     23 O         145.6401  141.6581  162.3445 O.2     1  UNL1       -0.2900
     24 C         142.9219  142.2724  162.3780 C.3     1  UNL1        0.0130
     25 C         142.0320  141.9739  161.2080 C.3     1  UNL1        0.0181
     26 C         142.4867  142.3022  159.8169 C.3     1  UNL1        0.0723
     27 N         141.9881  143.5435  159.1381 N.3     1  UNL1       -0.2685
     28 C         142.6906  144.0660  157.9201 C.3     1  UNL1        0.1046
     29 C         142.1921  145.3072  157.2413 C.3     1  UNL1        0.1595
     30 O         140.9910  146.0260  157.7805 O.3     1  UNL1       -0.3508
     31 C         140.2885  145.5036  158.9985 C.3     1  UNL1        0.1595
     32 C         140.7871  144.2623  159.6773 C.3     1  UNL1        0.1046
@<TRIPOS>BOND
     1    21    22    1
     2    22    23    2
     3    22     1    1
     4     1     2    2
     5     2     3    1
     6     3     4    1
     7     4     5   ar
     8     5     6   ar
     9     6     7    1
    10     6     8   ar
    11     8     9   ar
    12     9    10   ar
    13    10    11    1
    14    11    12    1
    15    13    12    1
    16    13    14    1
    17    14    24    1
    18    24    25    1
    19    25    26    1
    20    26    27    1
    21    27    28    1
    22    28    29    1
    23    29    30    1
    24    30    31    1
    25    31    32    1
    26    14    15    1
    27    15    16   ar
    28    16    17   ar
    29    17    18   ar
    30    18    19   ar
    31    19    20   ar
    32    14     1    1
    33    32    27    1
    34    20    15   ar
    35    13     3    1
    36    10     4   ar
