@<TRIPOS>MOLECULE
*****
 32 35 0 0 0
SMALL
GASTEIGER

@<TRIPOS>ATOM
      1 N         138.3894  141.6459  159.7691 N.am    1  UNL1       -0.2693
      2 C         138.3942  142.2878  161.1248 C.3     1  UNL1        0.1154
      3 C         138.4999  141.4383  162.3565 C.3     1  UNL1        0.1156
      4 N         138.6008  139.9468  162.2325 N.am    1  UNL1       -0.2660
      5 C         138.7065  139.0973  163.4643 C.2     1  UNL1        0.2496
      6 O         138.8074  137.6058  163.3403 O.2     1  UNL1       -0.2699
      7 C         138.5959  139.3049  160.8768 C.3     1  UNL1        0.1796
      8 C         138.4902  140.1544  159.6452 C.2     1  UNL1        0.2463
      9 O         138.4854  139.5125  158.2894 O.2     1  UNL1       -0.2730
     10 C         138.7113  139.7392  164.8199 C.2     1  UNL1        0.0579
     11 C         140.0106  139.9906  165.5261 C.2     1  UNL1        0.0044
     12 C         140.0155  140.6326  166.8818 C.ar    1  UNL1       -0.0018
     13 C         139.3836  139.9298  168.0466 C.ar    1  UNL1        0.0006
     14 C         139.3884  140.5718  169.4023 C.ar    1  UNL1        0.0114
     15 C         140.0252  141.9165  169.5932 C.ar    1  UNL1        0.0574
     16 CL        140.0300  142.5584  170.9488 Cl      1  UNL1       -0.0823
     17 C         140.6570  142.6192  168.4283 C.ar    1  UNL1        0.0091
     18 C         140.6522  141.9772  167.0726 C.ar    1  UNL1        0.0048
     19 C         141.2841  142.6799  165.9077 C.3     1  UNL1        0.1777
     20 N         140.4504  143.5505  165.0149 N.ar    1  UNL1       -0.1467
     21 N         138.9700  143.7657  165.1257 N.ar    1  UNL1       -0.0451
     22 N         138.5553  144.7069  164.0339 N.ar    1  UNL1       -0.1123
     23 C         139.7795  145.0735  163.2482 C.ar    1  UNL1        0.1838
     24 C         139.8245  145.9932  162.0641 C.3     1  UNL1        0.0776
     25 N         140.9506  144.3588  163.8545 N.ar    1  UNL1       -0.1339
     26 C         138.2836  142.4954  158.5374 C.3     1  UNL1        0.1611
     27 C         142.4513  144.6826  156.1442 C.3     1  UNL1        0.0557
     28 C         141.3055  144.4503  157.0839 C.ar    1  UNL1        0.1008
     29 C         140.3854  143.2657  157.0763 C.ar    1  UNL1        0.0553
     30 C         139.3898  143.4449  158.1839 C.ar    1  UNL1        0.1741
     31 O         139.6947  144.7403  158.8760 O.2     1  UNL1       -0.3563
     32 N         140.8787  145.3616  158.1962 N.ar    1  UNL1       -0.0817
@<TRIPOS>BOND
     1    27    28    1
     2    28    29   ar
     3    29    30   ar
     4    30    26    1
     5    26     1    1
     6     1     2    1
     7     2     3    1
     8     3     4    1
     9     4     5   am
    10     5     6    2
    11     5    10    1
    12    10    11    2
    13    11    12    1
    14    12    13   ar
    15    13    14   ar
    16    14    15   ar
    17    15    16    1
    18    15    17   ar
    19    17    18   ar
    20    18    19    1
    21    19    20    1
    22    20    21   ar
    23    21    22   ar
    24    22    23   ar
    25    23    24    1
    26    23    25   ar
    27     4     7    1
    28     7     8    1
    29     8     9    2
    30    30    31   ar
    31    31    32   ar
    32    32    28   ar
    33     8     1   am
    34    18    12   ar
    35    25    20   ar
@<TRIPOS>MOLECULE
*****
 32 35 0 0 0
SMALL
GASTEIGER

@<TRIPOS>ATOM
      1 N         139.1666  144.9903  156.0004 N.am    1  UNL1       -0.2693
      2 C         139.8399  144.4561  157.2297 C.3     1  UNL1        0.1154
      3 C         139.3278  143.2064  157.8822 C.3     1  UNL1        0.1156
      4 N         138.1424  142.4907  157.3053 N.am    1  UNL1       -0.2660
      5 C         137.6303  141.2409  157.9579 C.2     1  UNL1        0.2496
      6 O         136.4450  140.5253  157.3810 O.2     1  UNL1       -0.2699
      7 C         137.4692  143.0249  156.0760 C.3     1  UNL1        0.1796
      8 C         137.9813  144.2746  155.4235 C.2     1  UNL1        0.2463
      9 O         137.3080  144.8088  154.1940 O.2     1  UNL1       -0.2730
     10 C         138.3036  140.7068  159.1872 C.2     1  UNL1        0.0579
     11 C         137.4960  140.0096  160.2418 C.2     1  UNL1        0.0044
     12 C         138.1692  139.4755  161.4711 C.ar    1  UNL1       -0.0018
     13 C         138.9824  138.2174  161.3943 C.ar    1  UNL1        0.0006
     14 C         139.6557  137.6833  162.6236 C.ar    1  UNL1        0.0114
     15 C         139.5157  138.4072  163.9299 C.ar    1  UNL1        0.0574
     16 CL        140.1890  137.8731  165.1593 Cl      1  UNL1       -0.0823
     17 C         138.7025  139.6653  164.0068 C.ar    1  UNL1        0.0091
     18 C         138.0292  140.1994  162.7773 C.ar    1  UNL1        0.0048
     19 C         137.2160  141.4575  162.8542 C.3     1  UNL1        0.1777
     20 N         137.8975  142.7809  163.0394 N.ar    1  UNL1       -0.1467
     21 N         138.1685  143.4572  164.3506 N.ar    1  UNL1       -0.0451
     22 N         138.8660  144.7546  164.0676 N.ar    1  UNL1       -0.1123
     23 C         139.0262  144.8802  162.5814 C.ar    1  UNL1        0.1838
     24 C         139.6716  146.0246  161.8577 C.3     1  UNL1        0.0776
     25 N         138.4276  143.6604  161.9460 N.ar    1  UNL1       -0.1339
     26 C         139.6787  146.2401  155.3478 C.3     1  UNL1        0.1611
     27 C         138.4082  151.3634  155.4831 C.3     1  UNL1        0.0557
     28 C         138.6296  149.9373  155.8918 C.ar    1  UNL1        0.1008
     29 C         139.1533  148.8396  155.0138 C.ar    1  UNL1        0.0553
     30 C         139.2137  147.5823  155.8296 C.ar    1  UNL1        0.1741
     31 O         138.7273  147.9030  157.2119 O.2     1  UNL1       -0.3563
     32 N         138.3663  149.3584  157.2503 N.ar    1  UNL1       -0.0817
@<TRIPOS>BOND
     1    27    28    1
     2    28    29   ar
     3    29    30   ar
     4    30    26    1
     5    26     1    1
     6     1     2    1
     7     2     3    1
     8     3     4    1
     9     4     5   am
    10     5     6    2
    11     5    10    1
    12    10    11    2
    13    11    12    1
    14    12    13   ar
    15    13    14   ar
    16    14    15   ar
    17    15    16    1
    18    15    17   ar
    19    17    18   ar
    20    18    19    1
    21    19    20    1
    22    20    21   ar
    23    21    22   ar
    24    22    23   ar
    25    23    24    1
    26    23    25   ar
    27     4     7    1
    28     7     8    1
    29     8     9    2
    30    30    31   ar
    31    31    32   ar
    32    32    28   ar
    33     8     1   am
    34    18    12   ar
    35    25    20   ar
@<TRIPOS>MOLECULE
*****
 32 35 0 0 0
SMALL
GASTEIGER

@<TRIPOS>ATOM
      1 N         138.8413  140.8763  159.7399 N.am    1  UNL1       -0.2693
      2 C         138.7110  141.6657  161.0087 C.3     1  UNL1        0.1154
      3 C         138.8212  140.9756  162.3360 C.3     1  UNL1        0.1156
      4 N         139.0617  139.4961  162.3944 N.am    1  UNL1       -0.2660
      5 C         139.1719  138.8060  163.7217 C.2     1  UNL1        0.2496
      6 O         139.4124  137.3266  163.7801 O.2     1  UNL1       -0.2699
      7 C         139.1920  138.7068  161.1256 C.3     1  UNL1        0.1796
      8 C         139.0818  139.3969  159.7984 C.2     1  UNL1        0.2463
      9 O         139.2121  138.6075  158.5295 O.2     1  UNL1       -0.2730
     10 C         139.0416  139.5954  164.9905 C.2     1  UNL1        0.0579
     11 C         140.2523  139.8641  165.8344 C.2     1  UNL1        0.0044
     12 C         140.1220  140.6534  167.1032 C.ar    1  UNL1       -0.0018
     13 C         139.5093  140.0235  168.3188 C.ar    1  UNL1        0.0006
     14 C         139.3790  140.8128  169.5876 C.ar    1  UNL1        0.0114
     15 C         139.8614  142.2322  169.6408 C.ar    1  UNL1        0.0574
     16 CL        139.7311  143.0216  170.9096 Cl      1  UNL1       -0.0823
     17 C         140.4740  142.8622  168.4252 C.ar    1  UNL1        0.0091
     18 C         140.6043  142.0728  167.1563 C.ar    1  UNL1        0.0048
     19 C         141.2170  142.7027  165.9407 C.3     1  UNL1        0.1777
     20 N         140.3655  143.5054  165.0021 N.ar    1  UNL1       -0.1467
     21 N         138.8660  143.5397  164.9826 N.ar    1  UNL1       -0.0451
     22 N         138.4378  144.4702  163.8868 N.ar    1  UNL1       -0.1123
     23 C         139.6727  145.0110  163.2291 C.ar    1  UNL1        0.1838
     24 C         139.7098  145.9783  162.0832 C.3     1  UNL1        0.0776
     25 N         140.8641  144.4147  163.9184 N.ar    1  UNL1       -0.1339
     26 C         138.7311  141.5664  158.4126 C.3     1  UNL1        0.1611
     27 C         135.3163  141.8110  154.3927 C.3     1  UNL1        0.0557
     28 C         135.9781  141.4190  155.6804 C.ar    1  UNL1        0.1008
     29 C         137.2589  141.9827  156.2207 C.ar    1  UNL1        0.0553
     30 C         137.5478  141.3066  157.5282 C.ar    1  UNL1        0.1741
     31 O         136.4455  140.3251  157.7960 O.2     1  UNL1       -0.3563
     32 N         135.4754  140.3946  156.6540 N.ar    1  UNL1       -0.0817
@<TRIPOS>BOND
     1    27    28    1
     2    28    29   ar
     3    29    30   ar
     4    30    26    1
     5    26     1    1
     6     1     2    1
     7     2     3    1
     8     3     4    1
     9     4     5   am
    10     5     6    2
    11     5    10    1
    12    10    11    2
    13    11    12    1
    14    12    13   ar
    15    13    14   ar
    16    14    15   ar
    17    15    16    1
    18    15    17   ar
    19    17    18   ar
    20    18    19    1
    21    19    20    1
    22    20    21   ar
    23    21    22   ar
    24    22    23   ar
    25    23    24    1
    26    23    25   ar
    27     4     7    1
    28     7     8    1
    29     8     9    2
    30    30    31   ar
    31    31    32   ar
    32    32    28   ar
    33     8     1   am
    34    18    12   ar
    35    25    20   ar
@<TRIPOS>MOLECULE
*****
 32 35 0 0 0
SMALL
GASTEIGER

@<TRIPOS>ATOM
      1 N         139.3538  140.2862  167.1811 N.am    1  UNL1       -0.2693
      2 C         140.0713  141.2194  166.2515 C.3     1  UNL1        0.1154
      3 C         139.8375  141.1314  164.7725 C.3     1  UNL1        0.1156
      4 N         138.8861  140.1101  164.2231 N.am    1  UNL1       -0.2660
      5 C         138.6522  140.0221  162.7440 C.2     1  UNL1        0.2496
      6 O         137.7008  139.0008  162.1947 O.2     1  UNL1       -0.2699
      7 C         138.1685  139.1768  165.1527 C.3     1  UNL1        0.1796
      8 C         138.4024  139.2649  166.6317 C.2     1  UNL1        0.2463
      9 O         137.6849  138.3316  167.5614 O.2     1  UNL1       -0.2730
     10 C         139.3697  140.9553  161.8144 C.2     1  UNL1        0.0579
     11 C         138.7340  142.2549  161.4183 C.2     1  UNL1        0.0044
     12 C         139.4515  143.1882  160.4887 C.ar    1  UNL1       -0.0018
     13 C         139.2844  143.0442  159.0050 C.ar    1  UNL1        0.0006
     14 C         140.0019  143.9774  158.0754 C.ar    1  UNL1        0.0114
     15 C         140.8866  145.0547  158.6294 C.ar    1  UNL1        0.0574
     16 CL        141.6041  145.9879  157.6998 Cl      1  UNL1       -0.0823
     17 C         141.0536  145.1987  160.1131 C.ar    1  UNL1        0.0091
     18 C         140.3361  144.2654  161.0428 C.ar    1  UNL1        0.0048
     19 C         140.5031  144.4094  162.5265 C.3     1  UNL1        0.1777
     20 N         141.8544  144.2228  163.1506 N.ar    1  UNL1       -0.1467
     21 N         142.6462  145.2746  163.8696 N.ar    1  UNL1       -0.0451
     22 N         143.9321  144.6536  164.3288 N.ar    1  UNL1       -0.1123
     23 C         143.9350  143.2181  163.8935 C.ar    1  UNL1        0.1838
     24 C         145.0298  142.2235  164.1427 C.3     1  UNL1        0.0776
     25 N         142.6509  142.9519  163.1654 N.ar    1  UNL1       -0.1339
     26 C         139.5877  140.3742  168.6602 C.3     1  UNL1        0.1611
     27 C         144.1885  142.6047  169.9788 C.3     1  UNL1        0.0557
     28 C         142.7183  142.3604  169.8091 C.ar    1  UNL1        0.1008
     29 C         142.0930  141.1662  169.1513 C.ar    1  UNL1        0.0553
     30 C         140.6035  141.3352  169.2030 C.ar    1  UNL1        0.1741
     31 O         140.3081  142.6339  169.8929 O.2     1  UNL1       -0.3563
     32 N         141.6151  143.2676  170.2675 N.ar    1  UNL1       -0.0817
@<TRIPOS>BOND
     1    27    28    1
     2    28    29   ar
     3    29    30   ar
     4    30    26    1
     5    26     1    1
     6     1     2    1
     7     2     3    1
     8     3     4    1
     9     4     5   am
    10     5     6    2
    11     5    10    1
    12    10    11    2
    13    11    12    1
    14    12    13   ar
    15    13    14   ar
    16    14    15   ar
    17    15    16    1
    18    15    17   ar
    19    17    18   ar
    20    18    19    1
    21    19    20    1
    22    20    21   ar
    23    21    22   ar
    24    22    23   ar
    25    23    24    1
    26    23    25   ar
    27     4     7    1
    28     7     8    1
    29     8     9    2
    30    30    31   ar
    31    31    32   ar
    32    32    28   ar
    33     8     1   am
    34    18    12   ar
    35    25    20   ar
@<TRIPOS>MOLECULE
*****
 32 35 0 0 0
SMALL
GASTEIGER

@<TRIPOS>ATOM
      1 N         140.5382  139.9459  165.5288 N.am    1  UNL1       -0.2693
      2 C         139.9060  140.6451  164.3621 C.3     1  UNL1        0.1154
      3 C         140.7403  141.0296  163.1763 C.3     1  UNL1        0.1156
      4 N         142.2067  140.7147  163.1572 N.am    1  UNL1       -0.2660
      5 C         143.0410  141.0992  161.9713 C.2     1  UNL1        0.2496
      6 O         144.5075  140.7844  161.9522 O.2     1  UNL1       -0.2699
      7 C         142.8389  140.0155  164.3239 C.3     1  UNL1        0.1796
      8 C         142.0047  139.6310  165.5097 C.2     1  UNL1        0.2463
      9 O         142.6369  138.9317  166.6765 O.2     1  UNL1       -0.2730
     10 C         142.4088  141.7985  160.8046 C.2     1  UNL1        0.0579
     11 C         142.9602  143.1093  160.3272 C.2     1  UNL1        0.0044
     12 C         142.3280  143.8086  159.1605 C.ar    1  UNL1       -0.0018
     13 C         142.6714  143.3926  157.7608 C.ar    1  UNL1        0.0006
     14 C         142.0392  144.0919  156.5941 C.ar    1  UNL1        0.0114
     15 C         141.0635  145.2072  156.8270 C.ar    1  UNL1        0.0574
     16 CL        140.4313  145.9065  155.6603 Cl      1  UNL1       -0.0823
     17 C         140.7201  145.6232  158.2266 C.ar    1  UNL1        0.0091
     18 C         141.3524  144.9238  159.3934 C.ar    1  UNL1        0.0048
     19 C         141.0090  145.3398  160.7930 C.3     1  UNL1        0.1777
     20 N         139.8622  144.6895  161.5087 N.ar    1  UNL1       -0.1467
     21 N         138.8778  143.7304  160.9078 N.ar    1  UNL1       -0.0451
     22 N         137.9058  143.3322  161.9786 N.ar    1  UNL1       -0.1123
     23 C         138.2894  144.0453  163.2413 C.ar    1  UNL1        0.1838
     24 C         137.5872  143.9382  164.5625 C.3     1  UNL1        0.0776
     25 N         139.4986  144.8841  162.9509 N.ar    1  UNL1       -0.1339
     26 C         139.7040  139.5614  166.7147 C.3     1  UNL1        0.1611
     27 C         140.4984  143.6115  170.0080 C.3     1  UNL1        0.0557
     28 C         140.0702  142.2838  169.4570 C.ar    1  UNL1        0.1008
     29 C         140.2938  141.7971  168.0559 C.ar    1  UNL1        0.0553
     30 C         139.7051  140.4221  167.9432 C.ar    1  UNL1        0.1741
     31 O         139.1176  140.0589  169.2747 O.2     1  UNL1       -0.3563
     32 N         139.3433  141.2095  170.2103 N.ar    1  UNL1       -0.0817
@<TRIPOS>BOND
     1    27    28    1
     2    28    29   ar
     3    29    30   ar
     4    30    26    1
     5    26     1    1
     6     1     2    1
     7     2     3    1
     8     3     4    1
     9     4     5   am
    10     5     6    2
    11     5    10    1
    12    10    11    2
    13    11    12    1
    14    12    13   ar
    15    13    14   ar
    16    14    15   ar
    17    15    16    1
    18    15    17   ar
    19    17    18   ar
    20    18    19    1
    21    19    20    1
    22    20    21   ar
    23    21    22   ar
    24    22    23   ar
    25    23    24    1
    26    23    25   ar
    27     4     7    1
    28     7     8    1
    29     8     9    2
    30    30    31   ar
    31    31    32   ar
    32    32    28   ar
    33     8     1   am
    34    18    12   ar
    35    25    20   ar
@<TRIPOS>MOLECULE
*****
 32 35 0 0 0
SMALL
GASTEIGER

@<TRIPOS>ATOM
      1 N         141.8721  139.9306  159.2529 N.am    1  UNL1       -0.2693
      2 C         140.9851  140.1478  160.4429 C.3     1  UNL1        0.1154
      3 C         141.5862  140.2972  161.8090 C.3     1  UNL1        0.1156
      4 N         143.0743  140.2294  161.9851 N.am    1  UNL1       -0.2660
      5 C         143.6754  140.3788  163.3513 C.2     1  UNL1        0.2496
      6 O         145.1635  140.3110  163.5275 O.2     1  UNL1       -0.2699
      7 C         143.9613  140.0122  160.7952 C.3     1  UNL1        0.1796
      8 C         143.3601  139.8628  159.4291 C.2     1  UNL1        0.2463
      9 O         144.2471  139.6456  158.2390 O.2     1  UNL1       -0.2730
     10 C         142.7884  140.5960  164.5413 C.2     1  UNL1        0.0579
     11 C         142.2374  139.4192  165.2908 C.2     1  UNL1        0.0044
     12 C         141.3504  139.6364  166.4807 C.ar    1  UNL1       -0.0018
     13 C         141.9538  139.9288  167.8225 C.ar    1  UNL1        0.0006
     14 C         141.0669  140.1460  169.0125 C.ar    1  UNL1        0.0114
     15 C         139.5764  140.0707  168.8607 C.ar    1  UNL1        0.0574
     16 CL        138.6894  140.2879  170.0507 Cl      1  UNL1       -0.0823
     17 C         138.9730  139.7783  167.5189 C.ar    1  UNL1        0.0091
     18 C         139.8600  139.5611  166.3289 C.ar    1  UNL1        0.0048
     19 C         139.2566  139.2686  164.9871 C.3     1  UNL1        0.1777
     20 N         138.5966  140.3663  164.2063 N.ar    1  UNL1       -0.1467
     21 N         137.7017  140.1863  163.0160 N.ar    1  UNL1       -0.0451
     22 N         137.2677  141.5453  162.5527 N.ar    1  UNL1       -0.1123
     23 C         137.8944  142.5652  163.4566 C.ar    1  UNL1        0.1838
     24 C         137.7288  144.0527  163.3562 C.3     1  UNL1        0.0776
     25 N         138.7157  141.8365  164.4786 N.ar    1  UNL1       -0.1339
     26 C         141.2709  139.7812  157.8867 C.3     1  UNL1        0.1611
     27 C         137.2009  142.8384  156.4836 C.3     1  UNL1        0.0557
     28 C         138.0061  141.6736  156.9784 C.ar    1  UNL1        0.1008
     29 C         139.5015  141.6154  157.0808 C.ar    1  UNL1        0.0553
     30 C         139.8769  140.2683  157.6233 C.ar    1  UNL1        0.1741
     31 O         138.6136  139.4940  157.8563 O.2     1  UNL1       -0.3563
     32 N         137.4573  140.3625  157.4577 N.ar    1  UNL1       -0.0817
@<TRIPOS>BOND
     1    27    28    1
     2    28    29   ar
     3    29    30   ar
     4    30    26    1
     5    26     1    1
     6     1     2    1
     7     2     3    1
     8     3     4    1
     9     4     5   am
    10     5     6    2
    11     5    10    1
    12    10    11    2
    13    11    12    1
    14    12    13   ar
    15    13    14   ar
    16    14    15   ar
    17    15    16    1
    18    15    17   ar
    19    17    18   ar
    20    18    19    1
    21    19    20    1
    22    20    21   ar
    23    21    22   ar
    24    22    23   ar
    25    23    24    1
    26    23    25   ar
    27     4     7    1
    28     7     8    1
    29     8     9    2
    30    30    31   ar
    31    31    32   ar
    32    32    28   ar
    33     8     1   am
    34    18    12   ar
    35    25    20   ar
@<TRIPOS>MOLECULE
*****
 32 35 0 0 0
SMALL
GASTEIGER

@<TRIPOS>ATOM
      1 N         142.2800  137.6037  156.6142 N.am    1  UNL1       -0.2693
      2 C         142.4311  137.7043  158.1031 C.3     1  UNL1        0.1154
      3 C         141.3543  138.3495  158.9243 C.3     1  UNL1        0.1156
      4 N         140.1265  138.8940  158.2565 N.am    1  UNL1       -0.2660
      5 C         139.0497  139.5392  159.0777 C.2     1  UNL1        0.2496
      6 O         137.8219  140.0837  158.4099 O.2     1  UNL1       -0.2699
      7 C         139.9754  138.7934  156.7675 C.3     1  UNL1        0.1796
      8 C         141.0522  138.1482  155.9464 C.2     1  UNL1        0.2463
      9 O         140.9011  138.0475  154.4574 O.2     1  UNL1       -0.2730
     10 C         139.2008  139.6399  160.5666 C.2     1  UNL1        0.0579
     11 C         138.2168  138.9552  161.4684 C.2     1  UNL1        0.0044
     12 C         138.3679  139.0558  162.9573 C.ar    1  UNL1       -0.0018
     13 C         138.9660  137.9172  163.7292 C.ar    1  UNL1        0.0006
     14 C         139.1171  138.0178  165.2181 C.ar    1  UNL1        0.0114
     15 C         138.6701  139.2572  165.9353 C.ar    1  UNL1        0.0574
     16 CL        138.8212  139.3579  167.4242 Cl      1  UNL1       -0.0823
     17 C         138.0720  140.3958  165.1634 C.ar    1  UNL1        0.0091
     18 C         137.9209  140.2951  163.6744 C.ar    1  UNL1        0.0048
     19 C         137.3228  141.4338  162.9025 C.3     1  UNL1        0.1777
     20 N         138.1939  142.5610  162.4328 N.ar    1  UNL1       -0.1467
     21 N         138.2158  143.1410  161.0496 N.ar    1  UNL1       -0.0451
     22 N         139.2315  144.2445  161.0257 N.ar    1  UNL1       -0.1123
     23 C         139.8374  144.3465  162.3941 C.ar    1  UNL1        0.1838
     24 C         140.8983  145.3183  162.8184 C.3     1  UNL1        0.0776
     25 N         139.1961  143.3060  163.2637 N.ar    1  UNL1       -0.1339
     26 C         143.3568  136.9585  155.7930 C.3     1  UNL1        0.1611
     27 C         142.5196  132.1949  153.6744 C.3     1  UNL1        0.0557
     28 C         142.9638  133.2843  154.6050 C.ar    1  UNL1        0.1008
     29 C         142.7415  134.7549  154.4106 C.ar    1  UNL1        0.0553
     30 C         143.3486  135.4739  155.5788 C.ar    1  UNL1        0.1741
     31 O         143.9461  134.4475  156.4950 O.2     1  UNL1       -0.3563
     32 N         143.7083  133.0943  155.8932 N.ar    1  UNL1       -0.0817
@<TRIPOS>BOND
     1    27    28    1
     2    28    29   ar
     3    29    30   ar
     4    30    26    1
     5    26     1    1
     6     1     2    1
     7     2     3    1
     8     3     4    1
     9     4     5   am
    10     5     6    2
    11     5    10    1
    12    10    11    2
    13    11    12    1
    14    12    13   ar
    15    13    14   ar
    16    14    15   ar
    17    15    16    1
    18    15    17   ar
    19    17    18   ar
    20    18    19    1
    21    19    20    1
    22    20    21   ar
    23    21    22   ar
    24    22    23   ar
    25    23    24    1
    26    23    25   ar
    27     4     7    1
    28     7     8    1
    29     8     9    2
    30    30    31   ar
    31    31    32   ar
    32    32    28   ar
    33     8     1   am
    34    18    12   ar
    35    25    20   ar
@<TRIPOS>MOLECULE
*****
 32 35 0 0 0
SMALL
GASTEIGER

@<TRIPOS>ATOM
      1 N         141.9126  139.2986  160.3259 N.am    1  UNL1       -0.2693
      2 C         141.2237  139.4515  161.6495 C.3     1  UNL1        0.1154
      3 C         141.9998  139.9028  162.8512 C.3     1  UNL1        0.1156
      4 N         143.4647  140.2011  162.7292 N.am    1  UNL1       -0.2660
      5 C         144.2408  140.6524  163.9310 C.2     1  UNL1        0.2496
      6 O         145.7058  140.9508  163.8090 O.2     1  UNL1       -0.2699
      7 C         144.1536  140.0482  161.4056 C.3     1  UNL1        0.1796
      8 C         143.3775  139.5969  160.2040 C.2     1  UNL1        0.2463
      9 O         144.0664  139.4439  158.8803 O.2     1  UNL1       -0.2730
     10 C         143.5519  140.8054  165.2546 C.2     1  UNL1        0.0579
     11 C         143.1317  142.1651  165.7287 C.2     1  UNL1        0.0044
     12 C         142.4428  142.3180  167.0523 C.ar    1  UNL1       -0.0018
     13 C         143.2377  142.2581  168.3229 C.ar    1  UNL1        0.0006
     14 C         142.5488  142.4111  169.6465 C.ar    1  UNL1        0.0114
     15 C         141.0649  142.6239  169.6996 C.ar    1  UNL1        0.0574
     16 CL        140.3760  142.7769  171.0232 Cl      1  UNL1       -0.0823
     17 C         140.2699  142.6838  168.4290 C.ar    1  UNL1        0.0091
     18 C         140.9589  142.5308  167.1053 C.ar    1  UNL1        0.0048
     19 C         140.1640  142.5907  165.8347 C.3     1  UNL1        0.1777
     20 N         139.5611  141.3397  165.2675 N.ar    1  UNL1       -0.1467
     21 N         138.6456  141.2612  164.0819 N.ar    1  UNL1       -0.0451
     22 N         138.2865  139.8206  163.8680 N.ar    1  UNL1       -0.1123
     23 C         138.9802  139.0087  164.9215 C.ar    1  UNL1        0.1838
     24 C         138.9001  137.5195  165.0819 C.3     1  UNL1        0.0776
     25 N         139.7679  139.9476  165.7864 N.ar    1  UNL1       -0.1339
     26 C         141.1365  138.8473  159.1242 C.3     1  UNL1        0.1611
     27 C         137.7074  142.1171  156.7939 C.3     1  UNL1        0.0557
     28 C         138.2894  141.0513  157.6744 C.ar    1  UNL1        0.1008
     29 C         139.7327  140.6467  157.7327 C.ar    1  UNL1        0.0553
     30 C         139.8656  139.5483  158.7455 C.ar    1  UNL1        0.1741
     31 O         138.5045  139.2740  159.3131 O.2     1  UNL1       -0.3563
     32 N         137.5304  140.2029  158.6511 N.ar    1  UNL1       -0.0817
@<TRIPOS>BOND
     1    27    28    1
     2    28    29   ar
     3    29    30   ar
     4    30    26    1
     5    26     1    1
     6     1     2    1
     7     2     3    1
     8     3     4    1
     9     4     5   am
    10     5     6    2
    11     5    10    1
    12    10    11    2
    13    11    12    1
    14    12    13   ar
    15    13    14   ar
    16    14    15   ar
    17    15    16    1
    18    15    17   ar
    19    17    18   ar
    20    18    19    1
    21    19    20    1
    22    20    21   ar
    23    21    22   ar
    24    22    23   ar
    25    23    24    1
    26    23    25   ar
    27     4     7    1
    28     7     8    1
    29     8     9    2
    30    30    31   ar
    31    31    32   ar
    32    32    28   ar
    33     8     1   am
    34    18    12   ar
    35    25    20   ar
@<TRIPOS>MOLECULE
*****
 32 35 0 0 0
SMALL
GASTEIGER

@<TRIPOS>ATOM
      1 N         142.1551  138.9945  159.6027 N.am    1  UNL1       -0.2693
      2 C         141.3720  138.7383  160.8561 C.3     1  UNL1        0.1154
      3 C         141.9848  139.0248  162.1949 C.3     1  UNL1        0.1156
      4 N         143.3805  139.5675  162.2803 N.am    1  UNL1       -0.2660
      5 C         143.9932  139.8540  163.6192 C.2     1  UNL1        0.2496
      6 O         145.3890  140.3967  163.7045 O.2     1  UNL1       -0.2699
      7 C         144.1636  139.8237  161.0268 C.3     1  UNL1        0.1796
      8 C         143.5509  139.5372  159.6880 C.2     1  UNL1        0.2463
      9 O         144.3339  139.7934  158.4345 O.2     1  UNL1       -0.2730
     10 C         143.2102  139.5978  164.8726 C.2     1  UNL1        0.0579
     11 C         142.8589  140.7367  165.7835 C.2     1  UNL1        0.0044
     12 C         142.0758  140.4804  167.0369 C.ar    1  UNL1       -0.0018
     13 C         142.7883  140.1092  168.3036 C.ar    1  UNL1        0.0006
     14 C         142.0052  139.8530  169.5571 C.ar    1  UNL1        0.0114
     15 C         140.5096  139.9680  169.5438 C.ar    1  UNL1        0.0574
     16 CL        139.7266  139.7118  170.7972 Cl      1  UNL1       -0.0823
     17 C         139.7972  140.3393  168.2771 C.ar    1  UNL1        0.0091
     18 C         140.5803  140.5955  167.0236 C.ar    1  UNL1        0.0048
     19 C         139.8679  140.9667  165.7569 C.3     1  UNL1        0.1777
     20 N         139.3944  139.8945  164.8208 N.ar    1  UNL1       -0.1467
     21 N         139.5834  138.4177  165.0040 N.ar    1  UNL1       -0.0451
     22 N         138.9546  137.7212  163.8337 N.ar    1  UNL1       -0.1123
     23 C         138.3769  138.7676  162.9273 C.ar    1  UNL1        0.1838
     24 C         137.6543  138.5151  161.6373 C.3     1  UNL1        0.0776
     25 N         138.6487  140.1107  163.5374 N.ar    1  UNL1       -0.1339
     26 C         141.5424  138.7080  158.2638 C.3     1  UNL1        0.1611
     27 C         142.3424  135.3872  154.2371 C.3     1  UNL1        0.0557
     28 C         142.4096  136.0310  155.5903 C.ar    1  UNL1        0.1008
     29 C         141.6868  137.2761  156.0112 C.ar    1  UNL1        0.0553
     30 C         142.0419  137.5574  157.4411 C.ar    1  UNL1        0.1741
     31 O         142.9843  136.4861  157.9040 O.2     1  UNL1       -0.3563
     32 N         143.2116  135.5428  156.7601 N.ar    1  UNL1       -0.0817
@<TRIPOS>BOND
     1    27    28    1
     2    28    29   ar
     3    29    30   ar
     4    30    26    1
     5    26     1    1
     6     1     2    1
     7     2     3    1
     8     3     4    1
     9     4     5   am
    10     5     6    2
    11     5    10    1
    12    10    11    2
    13    11    12    1
    14    12    13   ar
    15    13    14   ar
    16    14    15   ar
    17    15    16    1
    18    15    17   ar
    19    17    18   ar
    20    18    19    1
    21    19    20    1
    22    20    21   ar
    23    21    22   ar
    24    22    23   ar
    25    23    24    1
    26    23    25   ar
    27     4     7    1
    28     7     8    1
    29     8     9    2
    30    30    31   ar
    31    31    32   ar
    32    32    28   ar
    33     8     1   am
    34    18    12   ar
    35    25    20   ar
