@<TRIPOS>MOLECULE
*****
 31 34 0 0 0
SMALL
GASTEIGER

@<TRIPOS>ATOM
      1 C         139.3664  142.5637  161.5387 C.ar    1  UNL1        0.0169
      2 C         138.3641  143.0996  162.5176 C.ar    1  UNL1        0.0010
      3 C         138.4599  142.7288  163.9679 C.ar    1  UNL1       -0.0042
      4 C         139.5580  141.8221  164.4392 C.ar    1  UNL1       -0.0225
      5 C         140.5603  141.2863  163.4602 C.ar    1  UNL1       -0.0042
      6 C         140.4644  141.6571  162.0100 C.ar    1  UNL1        0.0010
      7 C         140.4323  144.1678  161.0091 C.3     1  UNL1        0.0499
      8 C         140.0252  144.1210  159.5661 C.3     1  UNL1        0.1695
      9 C         140.9213  145.3237  159.5450 C.3     1  UNL1        0.0499
     10 O         139.9294  144.4919  158.1159 O.3     1  UNL1       -0.4606
     11 C         139.0788  143.6763  157.1878 C.ar    1  UNL1        0.2474
     12 N         138.9829  144.0472  155.7376 N.ar    1  UNL1       -0.1879
     13 C         138.1323  143.2316  154.8095 C.ar    1  UNL1        0.2028
     14 N         137.3776  142.0452  155.3317 N.ar    1  UNL1       -0.2077
     15 C         137.4734  141.6743  156.7820 C.ar    1  UNL1        0.1495
     16 N         136.7187  140.4878  157.3042 N.pl3   1  UNL1       -0.3413
     17 C         138.3240  142.4899  157.7100 C.ar    1  UNL1        0.1651
     18 N         138.4199  142.1190  159.1603 N.2     1  UNL1       -0.2388
     19 C         139.2705  142.9346  160.0883 C.2     1  UNL1        0.0951
     20 H         136.1604  139.9525  156.6951 H       1  UNL1        0.1438
     21 H         136.7816  140.2444  158.2560 H       1  UNL1        0.1438
     22 C         139.6539  141.4513  165.8895 C.3     1  UNL1        0.0223
     23 C         139.1007  140.1413  166.3668 C.3     1  UNL1        0.0044
     24 C         139.1965  139.7704  167.8170 C.3     1  UNL1        0.0007
     25 C         139.8456  140.7095  168.7899 C.3     1  UNL1        0.0056
     26 C         140.3988  142.0196  168.3127 C.3     1  UNL1        0.0007
     27 C         140.3029  142.3904  166.8624 C.3     1  UNL1        0.0044
     28 C         139.9415  140.3387  170.2403 C.3     1  UNL1        0.0417
     29 C         140.9644  140.9983  171.1170 C.2     1  UNL1        0.0503
     30 O         140.5555  142.1024  172.0465 O.co2   1  UNL1       -0.5492
     31 O         142.3960  140.5538  171.0642 O.co2   1  UNL1       -0.5492
@<TRIPOS>UNITY_ATOM_ATTR
30 1
charge -1
@<TRIPOS>BOND
     1     7     8    1
     2     8     9    1
     3     8    10    1
     4    10    11    1
     5    11    12   ar
     6    12    13   ar
     7    13    14   ar
     8    14    15   ar
     9    15    16    1
    10    15    17   ar
    11    17    18    1
    12    18    19    2
    13    19     1    1
    14     1     2   ar
    15     2     3   ar
    16     3     4   ar
    17    22     4    1
    18    22    23    1
    19    23    24    1
    20    24    25    1
    21    25    28    1
    22    28    29    1
    23    29    30   ar
    24    29    31   ar
    25    25    26    1
    26    26    27    1
    27     4     5   ar
    28     5     6   ar
    29    19     8    1
    30     6     1   ar
    31    17    11   ar
    32    27    22    1
    33    16    20    1
    34    16    21    1
@<TRIPOS>MOLECULE
*****
 31 34 0 0 0
SMALL
GASTEIGER

@<TRIPOS>ATOM
      1 C         140.7074  139.5663  164.9078 C.ar    1  UNL1        0.0169
      2 C         141.4437  138.2972  164.5959 C.ar    1  UNL1        0.0010
      3 C         141.7216  137.9222  163.1704 C.ar    1  UNL1       -0.0042
      4 C         141.2632  138.8163  162.0568 C.ar    1  UNL1       -0.0225
      5 C         140.5269  140.0855  162.3686 C.ar    1  UNL1       -0.0042
      6 C         140.2490  140.4605  163.7941 C.ar    1  UNL1        0.0010
      7 C         139.0032  138.8371  165.6517 C.3     1  UNL1        0.0499
      8 C         139.1805  139.4554  167.0068 C.3     1  UNL1        0.1695
      9 C         137.8698  138.7547  167.2097 C.3     1  UNL1        0.0499
     10 O         138.9026  139.8303  168.4324 O.3     1  UNL1       -0.4606
     11 C         139.8738  140.6912  169.1845 C.ar    1  UNL1        0.2474
     12 N         139.5959  141.0661  170.6100 N.ar    1  UNL1       -0.1879
     13 C         140.5671  141.9270  171.3621 C.ar    1  UNL1        0.2028
     14 N         141.8162  142.4129  170.6886 N.ar    1  UNL1       -0.2077
     15 C         142.0941  142.0380  169.2631 C.ar    1  UNL1        0.1495
     16 N         143.3432  142.5239  168.5896 N.pl3   1  UNL1       -0.3413
     17 C         141.1229  141.1771  168.5110 C.ar    1  UNL1        0.1651
     18 N         141.4008  140.8022  167.0854 N.2     1  UNL1       -0.2388
     19 C         140.4296  139.9413  166.3334 C.2     1  UNL1        0.0951
     20 H         143.9807  143.0889  169.0832 H       1  UNL1        0.1438
     21 H         143.5256  142.2778  167.6539 H       1  UNL1        0.1438
     22 C         141.5411  138.4414  160.6312 C.3     1  UNL1        0.0223
     23 C         142.7681  137.6490  160.2896 C.3     1  UNL1        0.0044
     24 C         143.0460  137.2740  158.8641 C.3     1  UNL1        0.0007
     25 C         142.0969  137.6914  157.7801 C.3     1  UNL1        0.0056
     26 C         140.8699  138.4838  158.1217 C.3     1  UNL1        0.0007
     27 C         140.5920  138.8588  159.5472 C.3     1  UNL1        0.0044
     28 C         142.3748  137.3165  156.3545 C.3     1  UNL1        0.0417
     29 C         143.6760  136.6652  155.9903 C.2     1  UNL1        0.0503
     30 O         144.8590  137.5093  155.6186 O.co2   1  UNL1       -0.5492
     31 O         143.7942  135.1699  155.9978 O.co2   1  UNL1       -0.5492
@<TRIPOS>UNITY_ATOM_ATTR
30 1
charge -1
@<TRIPOS>BOND
     1     7     8    1
     2     8     9    1
     3     8    10    1
     4    10    11    1
     5    11    12   ar
     6    12    13   ar
     7    13    14   ar
     8    14    15   ar
     9    15    16    1
    10    15    17   ar
    11    17    18    1
    12    18    19    2
    13    19     1    1
    14     1     2   ar
    15     2     3   ar
    16     3     4   ar
    17    22     4    1
    18    22    23    1
    19    23    24    1
    20    24    25    1
    21    25    28    1
    22    28    29    1
    23    29    30   ar
    24    29    31   ar
    25    25    26    1
    26    26    27    1
    27     4     5   ar
    28     5     6   ar
    29    19     8    1
    30     6     1   ar
    31    17    11   ar
    32    27    22    1
    33    16    20    1
    34    16    21    1
@<TRIPOS>MOLECULE
*****
 31 34 0 0 0
SMALL
GASTEIGER

@<TRIPOS>ATOM
      1 C         142.8000  138.6186  160.7914 C.ar    1  UNL1        0.0169
      2 C         144.0754  139.0271  161.4670 C.ar    1  UNL1        0.0010
      3 C         144.0622  139.4354  162.9103 C.ar    1  UNL1       -0.0042
      4 C         142.7736  139.4352  163.6779 C.ar    1  UNL1       -0.0225
      5 C         141.4981  139.0268  163.0023 C.ar    1  UNL1       -0.0042
      6 C         141.5114  138.6185  161.5590 C.ar    1  UNL1        0.0010
      7 C         142.4877  140.1053  159.4945 C.3     1  UNL1        0.0499
      8 C         142.5907  139.2360  158.2764 C.3     1  UNL1        0.1695
      9 C         142.3323  140.5635  157.6278 C.3     1  UNL1        0.0499
     10 O         142.6039  138.8277  156.8331 O.3     1  UNL1       -0.4606
     11 C         142.8399  137.3938  156.4614 C.ar    1  UNL1        0.2474
     12 N         142.8531  136.9855  155.0181 N.ar    1  UNL1       -0.1879
     13 C         143.0890  135.5516  154.6465 C.ar    1  UNL1        0.2028
     14 N         143.3116  134.5259  155.7182 N.ar    1  UNL1       -0.2077
     15 C         143.2984  134.9342  157.1614 C.ar    1  UNL1        0.1495
     16 N         143.5210  133.9085  158.2331 N.pl3   1  UNL1       -0.3413
     17 C         143.0625  136.3681  157.5331 C.ar    1  UNL1        0.1651
     18 N         143.0492  136.7764  158.9764 N.2     1  UNL1       -0.2388
     19 C         142.8133  138.2103  159.3481 C.2     1  UNL1        0.0951
     20 H         143.6758  132.9673  157.9892 H       1  UNL1        0.1438
     21 H         143.5123  134.1764  159.1804 H       1  UNL1        0.1438
     22 C         142.7603  139.8436  165.1213 C.3     1  UNL1        0.0223
     23 C         142.6208  141.2908  165.4900 C.3     1  UNL1        0.0044
     24 C         142.6075  141.6992  166.9333 C.3     1  UNL1        0.0007
     25 C         142.7337  140.6603  168.0078 C.3     1  UNL1        0.0056
     26 C         142.8732  139.2130  167.6391 C.3     1  UNL1        0.0007
     27 C         142.8865  138.8046  166.1958 C.3     1  UNL1        0.0044
     28 C         142.7204  141.0686  169.4511 C.3     1  UNL1        0.0417
     29 C         143.1863  142.4382  169.8474 C.2     1  UNL1        0.0503
     30 O         142.2199  143.4134  170.4519 O.co2   1  UNL1       -0.5492
     31 O         144.6184  142.8328  169.6391 O.co2   1  UNL1       -0.5492
@<TRIPOS>UNITY_ATOM_ATTR
30 1
charge -1
@<TRIPOS>BOND
     1     7     8    1
     2     8     9    1
     3     8    10    1
     4    10    11    1
     5    11    12   ar
     6    12    13   ar
     7    13    14   ar
     8    14    15   ar
     9    15    16    1
    10    15    17   ar
    11    17    18    1
    12    18    19    2
    13    19     1    1
    14     1     2   ar
    15     2     3   ar
    16     3     4   ar
    17    22     4    1
    18    22    23    1
    19    23    24    1
    20    24    25    1
    21    25    28    1
    22    28    29    1
    23    29    30   ar
    24    29    31   ar
    25    25    26    1
    26    26    27    1
    27     4     5   ar
    28     5     6   ar
    29    19     8    1
    30     6     1   ar
    31    17    11   ar
    32    27    22    1
    33    16    20    1
    34    16    21    1
@<TRIPOS>MOLECULE
*****
 31 34 0 0 0
SMALL
GASTEIGER

@<TRIPOS>ATOM
      1 C         139.8481  142.7997  161.1240 C.ar    1  UNL1        0.0169
      2 C         140.7528  141.7282  161.6562 C.ar    1  UNL1        0.0010
      3 C         140.7953  141.4456  163.1287 C.ar    1  UNL1       -0.0042
      4 C         139.9330  142.2344  164.0690 C.ar    1  UNL1       -0.0225
      5 C         139.0282  143.3059  163.5367 C.ar    1  UNL1       -0.0042
      6 C         138.9858  143.5886  162.0642 C.ar    1  UNL1        0.0010
      7 C         138.5560  141.6808  160.0903 C.3     1  UNL1        0.0499
      8 C         138.8752  142.3079  158.7656 C.3     1  UNL1        0.1695
      9 C         137.8339  141.3157  158.3399 C.3     1  UNL1        0.0499
     10 O         138.8328  142.5904  157.2931 O.3     1  UNL1       -0.4606
     11 C         139.7208  143.6474  156.7063 C.ar    1  UNL1        0.2474
     12 N         139.6783  143.9300  155.2338 N.ar    1  UNL1       -0.1879
     13 C         140.5663  144.9869  154.6471 C.ar    1  UNL1        0.2028
     14 N         141.4968  145.7613  155.5328 N.ar    1  UNL1       -0.2077
     15 C         141.5392  145.4787  157.0053 C.ar    1  UNL1        0.1495
     16 N         142.4697  146.2531  157.8911 N.pl3   1  UNL1       -0.3413
     17 C         140.6512  144.4218  157.5921 C.ar    1  UNL1        0.1651
     18 N         140.6937  144.1392  159.0647 N.2     1  UNL1       -0.2388
     19 C         139.8057  143.0823  159.6514 C.2     1  UNL1        0.0951
     20 H         143.0525  146.9468  157.5060 H       1  UNL1        0.1438
     21 H         142.4975  146.0677  158.8576 H       1  UNL1        0.1438
     22 C         139.9754  141.9519  165.5415 C.3     1  UNL1        0.0223
     23 C         140.3931  143.0275  166.4999 C.3     1  UNL1        0.0044
     24 C         140.4355  142.7450  167.9724 C.3     1  UNL1        0.0007
     25 C         140.0603  141.3868  168.4865 C.3     1  UNL1        0.0056
     26 C         139.6426  140.3111  167.5282 C.3     1  UNL1        0.0007
     27 C         139.6001  140.5936  166.0557 C.3     1  UNL1        0.0044
     28 C         140.1027  141.1042  169.9591 C.3     1  UNL1        0.0417
     29 C         140.3454  142.2212  170.9305 C.2     1  UNL1        0.0503
     30 O         141.6591  142.3189  171.6480 O.co2   1  UNL1       -0.5492
     31 O         139.2746  143.2404  171.1842 O.co2   1  UNL1       -0.5492
@<TRIPOS>UNITY_ATOM_ATTR
30 1
charge -1
@<TRIPOS>BOND
     1     7     8    1
     2     8     9    1
     3     8    10    1
     4    10    11    1
     5    11    12   ar
     6    12    13   ar
     7    13    14   ar
     8    14    15   ar
     9    15    16    1
    10    15    17   ar
    11    17    18    1
    12    18    19    2
    13    19     1    1
    14     1     2   ar
    15     2     3   ar
    16     3     4   ar
    17    22     4    1
    18    22    23    1
    19    23    24    1
    20    24    25    1
    21    25    28    1
    22    28    29    1
    23    29    30   ar
    24    29    31   ar
    25    25    26    1
    26    26    27    1
    27     4     5   ar
    28     5     6   ar
    29    19     8    1
    30     6     1   ar
    31    17    11   ar
    32    27    22    1
    33    16    20    1
    34    16    21    1
@<TRIPOS>MOLECULE
*****
 31 34 0 0 0
SMALL
GASTEIGER

@<TRIPOS>ATOM
      1 C         143.3286  140.4519  161.4737 C.ar    1  UNL1        0.0169
      2 C         142.3863  141.4411  162.0929 C.ar    1  UNL1        0.0010
      3 C         142.2442  141.5093  163.5846 C.ar    1  UNL1       -0.0042
      4 C         143.0443  140.5881  164.4570 C.ar    1  UNL1       -0.0225
      5 C         143.9866  139.5989  163.8378 C.ar    1  UNL1       -0.0042
      6 C         144.1287  139.5307  162.3461 C.ar    1  UNL1        0.0010
      7 C         142.1234  139.1375  160.5737 C.3     1  UNL1        0.0499
      8 C         142.6207  139.4348  159.1901 C.3     1  UNL1        0.1695
      9 C         141.5980  138.3826  158.8789 C.3     1  UNL1        0.0499
     10 O         142.7627  139.3667  157.6985 O.3     1  UNL1       -0.4606
     11 C         143.7548  140.2476  156.9985 C.ar    1  UNL1        0.2474
     12 N         143.8968  140.1794  155.5068 N.ar    1  UNL1       -0.1879
     13 C         144.8888  141.0603  154.8069 C.ar    1  UNL1        0.2028
     14 N         145.7388  142.0093  155.5987 N.ar    1  UNL1       -0.2077
     15 C         145.5968  142.0774  157.0904 C.ar    1  UNL1        0.1495
     16 N         146.4468  143.0264  157.8822 N.pl3   1  UNL1       -0.3413
     17 C         144.6048  141.1966  157.7903 C.ar    1  UNL1        0.1651
     18 N         144.4627  141.2647  159.2820 N.2     1  UNL1       -0.2388
     19 C         143.4706  140.3838  159.9819 C.2     1  UNL1        0.0951
     20 H         147.0979  143.6046  157.4228 H       1  UNL1        0.1438
     21 H         146.3535  143.0711  158.8612 H       1  UNL1        0.1438
     22 C         142.9023  140.6562  165.9488 C.3     1  UNL1        0.0223
     23 C         142.8634  141.9877  166.6384 C.3     1  UNL1        0.0044
     24 C         142.7213  142.0558  168.1301 C.3     1  UNL1        0.0007
     25 C         142.6181  140.7925  168.9321 C.3     1  UNL1        0.0056
     26 C         142.6570  139.4610  168.2424 C.3     1  UNL1        0.0007
     27 C         142.7991  139.3929  166.7508 C.3     1  UNL1        0.0044
     28 C         142.4760  140.8606  170.4239 C.3     1  UNL1        0.0417
     29 C         141.1126  140.8437  171.0489 C.2     1  UNL1        0.0503
     30 O         140.6765  141.9780  171.9282 O.co2   1  UNL1       -0.5492
     31 O         140.1852  139.6924  170.7947 O.co2   1  UNL1       -0.5492
@<TRIPOS>UNITY_ATOM_ATTR
30 1
charge -1
@<TRIPOS>BOND
     1     7     8    1
     2     8     9    1
     3     8    10    1
     4    10    11    1
     5    11    12   ar
     6    12    13   ar
     7    13    14   ar
     8    14    15   ar
     9    15    16    1
    10    15    17   ar
    11    17    18    1
    12    18    19    2
    13    19     1    1
    14     1     2   ar
    15     2     3   ar
    16     3     4   ar
    17    22     4    1
    18    22    23    1
    19    23    24    1
    20    24    25    1
    21    25    28    1
    22    28    29    1
    23    29    30   ar
    24    29    31   ar
    25    25    26    1
    26    26    27    1
    27     4     5   ar
    28     5     6   ar
    29    19     8    1
    30     6     1   ar
    31    17    11   ar
    32    27    22    1
    33    16    20    1
    34    16    21    1
@<TRIPOS>MOLECULE
*****
 31 34 0 0 0
SMALL
GASTEIGER

@<TRIPOS>ATOM
      1 C         140.1247  139.2058  161.4332 C.ar    1  UNL1        0.0169
      2 C         140.8343  140.3968  162.0058 C.ar    1  UNL1        0.0010
      3 C         140.9592  140.5523  163.4925 C.ar    1  UNL1       -0.0042
      4 C         140.3743  139.5168  164.4065 C.ar    1  UNL1       -0.0225
      5 C         139.6646  138.3258  163.8339 C.ar    1  UNL1       -0.0042
      6 C         139.5398  138.1703  162.3473 C.ar    1  UNL1        0.0010
      7 C         138.5288  140.0956  160.6262 C.3     1  UNL1        0.0499
      8 C         138.8435  139.6730  159.2218 C.3     1  UNL1        0.1695
      9 C         137.5778  140.4424  158.9848 C.3     1  UNL1        0.0499
     10 O         138.7186  139.5176  157.7351 O.3     1  UNL1       -0.4606
     11 C         139.7502  138.7396  156.9731 C.ar    1  UNL1        0.2474
     12 N         139.6253  138.5842  155.4864 N.ar    1  UNL1       -0.1879
     13 C         140.6568  137.8062  154.7244 C.ar    1  UNL1        0.2028
     14 N         141.8132  137.1836  155.4491 N.ar    1  UNL1       -0.2077
     15 C         141.9380  137.3390  156.9358 C.ar    1  UNL1        0.1495
     16 N         143.0944  136.7163  157.6605 N.pl3   1  UNL1       -0.3413
     17 C         140.9065  138.1170  157.6978 C.ar    1  UNL1        0.1651
     18 N         141.0314  138.2724  159.1845 N.2     1  UNL1       -0.2388
     19 C         139.9998  139.0504  159.9465 C.2     1  UNL1        0.0951
     20 H         143.7714  136.2057  157.1604 H       1  UNL1        0.1438
     21 H         143.1763  136.8184  158.6363 H       1  UNL1        0.1438
     22 C         140.4991  139.6722  165.8933 C.3     1  UNL1        0.0223
     23 C         139.2681  139.8148  166.7384 C.3     1  UNL1        0.0044
     24 C         139.3929  139.9702  168.2251 C.3     1  UNL1        0.0007
     25 C         140.7487  139.9831  168.8666 C.3     1  UNL1        0.0056
     26 C         141.9797  139.8405  168.0215 C.3     1  UNL1        0.0007
     27 C         141.8549  139.6850  166.5348 C.3     1  UNL1        0.0044
     28 C         140.8735  140.1385  170.3534 C.3     1  UNL1        0.0417
     29 C         140.6445  141.4776  170.9893 C.2     1  UNL1        0.0503
     30 O         141.7168  142.1002  171.8335 O.co2   1  UNL1       -0.5492
     31 O         139.3433  142.1941  170.7811 O.co2   1  UNL1       -0.5492
@<TRIPOS>UNITY_ATOM_ATTR
30 1
charge -1
@<TRIPOS>BOND
     1     7     8    1
     2     8     9    1
     3     8    10    1
     4    10    11    1
     5    11    12   ar
     6    12    13   ar
     7    13    14   ar
     8    14    15   ar
     9    15    16    1
    10    15    17   ar
    11    17    18    1
    12    18    19    2
    13    19     1    1
    14     1     2   ar
    15     2     3   ar
    16     3     4   ar
    17    22     4    1
    18    22    23    1
    19    23    24    1
    20    24    25    1
    21    25    28    1
    22    28    29    1
    23    29    30   ar
    24    29    31   ar
    25    25    26    1
    26    26    27    1
    27     4     5   ar
    28     5     6   ar
    29    19     8    1
    30     6     1   ar
    31    17    11   ar
    32    27    22    1
    33    16    20    1
    34    16    21    1
@<TRIPOS>MOLECULE
*****
 31 34 0 0 0
SMALL
GASTEIGER

@<TRIPOS>ATOM
      1 C         139.5509  141.2415  164.7078 C.ar    1  UNL1        0.0169
      2 C         138.5316  142.2515  164.2708 C.ar    1  UNL1        0.0010
      3 C         138.4319  142.6393  162.8253 C.ar    1  UNL1       -0.0042
      4 C         139.3514  142.0171  161.8167 C.ar    1  UNL1       -0.0225
      5 C         140.3707  141.0070  162.2537 C.ar    1  UNL1       -0.0042
      6 C         140.4704  140.6193  163.6993 C.ar    1  UNL1        0.0010
      7 C         138.3075  139.7847  165.2749 C.3     1  UNL1        0.0499
      8 C         138.7690  139.7712  166.7021 C.3     1  UNL1        0.1695
      9 C         137.7272  138.6935  166.7551 C.3     1  UNL1        0.0499
     10 O         138.8687  139.3834  168.1476 O.3     1  UNL1       -0.4606
     11 C         139.8500  140.0782  169.0446 C.ar    1  UNL1        0.2474
     12 N         139.9497  139.6904  170.4902 N.ar    1  UNL1       -0.1879
     13 C         140.9309  140.3851  171.3871 C.ar    1  UNL1        0.2028
     14 N         141.8125  141.4676  170.8384 N.ar    1  UNL1       -0.2077
     15 C         141.7128  141.8553  169.3929 C.ar    1  UNL1        0.1495
     16 N         142.5944  142.9378  168.8442 N.pl3   1  UNL1       -0.3413
     17 C         140.7316  141.1606  168.4960 C.ar    1  UNL1        0.1651
     18 N         140.6319  141.5484  167.0503 N.2     1  UNL1       -0.2388
     19 C         139.6506  140.8537  166.1535 C.2     1  UNL1        0.0951
     20 H         143.2385  143.3938  169.4329 H       1  UNL1        0.1438
     21 H         142.5290  143.1923  167.8954 H       1  UNL1        0.1438
     22 C         139.2517  142.4048  160.3711 C.3     1  UNL1        0.0223
     23 C         138.4926  141.5363  159.4123 C.3     1  UNL1        0.0044
     24 C         138.3929  141.9240  157.9667 C.3     1  UNL1        0.0007
     25 C         139.0523  143.1803  157.4800 C.3     1  UNL1        0.0056
     26 C         139.8114  144.0488  158.4388 C.3     1  UNL1        0.0007
     27 C         139.9111  143.6611  159.8844 C.3     1  UNL1        0.0044
     28 C         138.9525  143.5680  156.0344 C.3     1  UNL1        0.0417
     29 C         137.7877  144.3824  155.5550 C.2     1  UNL1        0.0503
     30 O         137.9994  145.7927  155.0897 O.co2   1  UNL1       -0.5492
     31 O         136.4112  143.7867  155.5408 O.co2   1  UNL1       -0.5492
@<TRIPOS>UNITY_ATOM_ATTR
30 1
charge -1
@<TRIPOS>BOND
     1     7     8    1
     2     8     9    1
     3     8    10    1
     4    10    11    1
     5    11    12   ar
     6    12    13   ar
     7    13    14   ar
     8    14    15   ar
     9    15    16    1
    10    15    17   ar
    11    17    18    1
    12    18    19    2
    13    19     1    1
    14     1     2   ar
    15     2     3   ar
    16     3     4   ar
    17    22     4    1
    18    22    23    1
    19    23    24    1
    20    24    25    1
    21    25    28    1
    22    28    29    1
    23    29    30   ar
    24    29    31   ar
    25    25    26    1
    26    26    27    1
    27     4     5   ar
    28     5     6   ar
    29    19     8    1
    30     6     1   ar
    31    17    11   ar
    32    27    22    1
    33    16    20    1
    34    16    21    1
@<TRIPOS>MOLECULE
*****
 31 34 0 0 0
SMALL
GASTEIGER

@<TRIPOS>ATOM
      1 C         140.5634  139.1605  161.6262 C.ar    1  UNL1        0.0169
      2 C         139.8408  138.1751  162.4963 C.ar    1  UNL1        0.0010
      3 C         139.8214  138.3617  163.9845 C.ar    1  UNL1       -0.0042
      4 C         140.5245  139.5337  164.6026 C.ar    1  UNL1       -0.0225
      5 C         141.2471  140.5190  163.7325 C.ar    1  UNL1       -0.0042
      6 C         141.2665  140.3324  162.2444 C.ar    1  UNL1        0.0010
      7 C         142.1244  138.1276  160.9290 C.3     1  UNL1        0.0499
      8 C         141.7038  138.2150  159.4918 C.3     1  UNL1        0.1695
      9 C         142.9708  137.4258  159.3448 C.3     1  UNL1        0.0499
     10 O         141.7232  138.0283  158.0037 O.3     1  UNL1       -0.4606
     11 C         140.6216  138.6005  157.1615 C.ar    1  UNL1        0.2474
     12 N         140.6410  138.4138  155.6733 N.ar    1  UNL1       -0.1879
     13 C         139.5394  138.9860  154.8313 C.ar    1  UNL1        0.2028
     14 N         138.4184  139.7448  155.4774 N.ar    1  UNL1       -0.2077
     15 C         138.3990  139.9315  156.9656 C.ar    1  UNL1        0.1495
     16 N         137.2780  140.6903  157.6118 N.pl3   1  UNL1       -0.3413
     17 C         139.5006  139.3593  157.8077 C.ar    1  UNL1        0.1651
     18 N         139.4812  139.5460  159.2959 N.2     1  UNL1       -0.2388
     19 C         140.5828  138.9738  160.1380 C.2     1  UNL1        0.0951
     20 H         136.5549  141.0659  157.0591 H       1  UNL1        0.1438
     21 H         137.2652  140.8129  158.5885 H       1  UNL1        0.1438
     22 C         140.5051  139.7203  166.0909 C.3     1  UNL1        0.0223
     23 C         139.1999  139.7188  166.8300 C.3     1  UNL1        0.0044
     24 C         139.1804  139.9055  168.3182 C.3     1  UNL1        0.0007
     25 C         140.4663  140.0936  169.0673 C.3     1  UNL1        0.0056
     26 C         141.7715  140.0951  168.3282 C.3     1  UNL1        0.0007
     27 C         141.7910  139.9084  166.8400 C.3     1  UNL1        0.0044
     28 C         140.4469  140.2802  170.5555 C.3     1  UNL1        0.0417
     29 C         140.5207  141.6600  171.1394 C.2     1  UNL1        0.0503
     30 O         141.7579  142.1032  171.8626 O.co2   1  UNL1       -0.5492
     31 O         139.3573  142.5965  171.0000 O.co2   1  UNL1       -0.5492
@<TRIPOS>UNITY_ATOM_ATTR
30 1
charge -1
@<TRIPOS>BOND
     1     7     8    1
     2     8     9    1
     3     8    10    1
     4    10    11    1
     5    11    12   ar
     6    12    13   ar
     7    13    14   ar
     8    14    15   ar
     9    15    16    1
    10    15    17   ar
    11    17    18    1
    12    18    19    2
    13    19     1    1
    14     1     2   ar
    15     2     3   ar
    16     3     4   ar
    17    22     4    1
    18    22    23    1
    19    23    24    1
    20    24    25    1
    21    25    28    1
    22    28    29    1
    23    29    30   ar
    24    29    31   ar
    25    25    26    1
    26    26    27    1
    27     4     5   ar
    28     5     6   ar
    29    19     8    1
    30     6     1   ar
    31    17    11   ar
    32    27    22    1
    33    16    20    1
    34    16    21    1
@<TRIPOS>MOLECULE
*****
 31 34 0 0 0
SMALL
GASTEIGER

@<TRIPOS>ATOM
      1 C         140.0478  139.8594  164.7726 C.ar    1  UNL1        0.0169
      2 C         139.2776  140.7775  163.8705 C.ar    1  UNL1        0.0010
      3 C         139.3199  140.5781  162.3844 C.ar    1  UNL1       -0.0042
      4 C         140.1323  139.4606  161.8005 C.ar    1  UNL1       -0.0225
      5 C         140.9024  138.5424  162.7026 C.ar    1  UNL1       -0.0042
      6 C         140.8602  138.7418  164.1887 C.ar    1  UNL1        0.0010
      7 C         138.5087  138.9817  165.6949 C.3     1  UNL1        0.0499
      8 C         138.8979  139.4492  167.0660 C.3     1  UNL1        0.1695
      9 C         137.6552  138.6773  167.3971 C.3     1  UNL1        0.0499
     10 O         138.8556  139.6486  168.5521 O.3     1  UNL1       -0.4606
     11 C         139.9209  140.4576  169.2309 C.ar    1  UNL1        0.2474
     12 N         139.8786  140.6570  170.7170 N.ar    1  UNL1       -0.1879
     13 C         140.9438  141.4660  171.3957 C.ar    1  UNL1        0.2028
     14 N         142.0514  142.0756  170.5884 N.ar    1  UNL1       -0.2077
     15 C         142.0937  141.8762  169.1024 C.ar    1  UNL1        0.1495
     16 N         143.2013  142.4858  168.2951 N.pl3   1  UNL1       -0.3413
     17 C         141.0285  141.0672  168.4236 C.ar    1  UNL1        0.1651
     18 N         141.0707  140.8678  166.9375 N.2     1  UNL1       -0.2388
     19 C         140.0055  140.0588  166.2587 C.2     1  UNL1        0.0951
     20 H         143.9004  143.0167  168.7406 H       1  UNL1        0.1438
     21 H         143.2290  142.3549  167.3197 H       1  UNL1        0.1438
     22 C         140.1746  139.2611  160.3144 C.3     1  UNL1        0.0223
     23 C         139.0768  139.8106  159.4524 C.3     1  UNL1        0.0044
     24 C         139.1190  139.6112  157.9663 C.3     1  UNL1        0.0007
     25 C         140.2590  138.8623  157.3422 C.3     1  UNL1        0.0056
     26 C         141.3568  138.3129  158.2042 C.3     1  UNL1        0.0007
     27 C         141.3146  138.5123  159.6903 C.3     1  UNL1        0.0044
     28 C         140.3013  138.6629  155.8561 C.3     1  UNL1        0.0417
     29 C         139.0474  138.3148  155.1102 C.2     1  UNL1        0.0503
     30 O         138.6248  139.1369  153.9288 O.co2   1  UNL1       -0.5492
     31 O         138.2161  137.1446  155.5455 O.co2   1  UNL1       -0.5492
@<TRIPOS>UNITY_ATOM_ATTR
30 1
charge -1
@<TRIPOS>BOND
     1     7     8    1
     2     8     9    1
     3     8    10    1
     4    10    11    1
     5    11    12   ar
     6    12    13   ar
     7    13    14   ar
     8    14    15   ar
     9    15    16    1
    10    15    17   ar
    11    17    18    1
    12    18    19    2
    13    19     1    1
    14     1     2   ar
    15     2     3   ar
    16     3     4   ar
    17    22     4    1
    18    22    23    1
    19    23    24    1
    20    24    25    1
    21    25    28    1
    22    28    29    1
    23    29    30   ar
    24    29    31   ar
    25    25    26    1
    26    26    27    1
    27     4     5   ar
    28     5     6   ar
    29    19     8    1
    30     6     1   ar
    31    17    11   ar
    32    27    22    1
    33    16    20    1
    34    16    21    1
