@<TRIPOS>MOLECULE
*****
 21 23 0 0 0
SMALL
GASTEIGER

@<TRIPOS>ATOM
      1 C         137.9346  138.6913  166.8537 C.3     1  UNL1        0.2532
      2 N         138.8895  139.3310  165.8899 N.pl3   1  UNL1       -0.1917
      3 C         138.5799  139.3406  164.4222 C.2     1  UNL1        0.3205
      4 N         138.6630  138.0697  163.6298 N.2     1  UNL1        0.0097
      5 C         138.3535  138.0793  162.1622 C.2     1  UNL1        0.4717
      6 N         137.9607  139.3599  161.4869 N.2     1  UNL1        0.0158
      7 C         137.8776  140.6308  162.2792 C.2     1  UNL1        0.3714
      8 N         137.5206  142.0347  161.8899 N.2     1  UNL1       -0.0339
      9 C         137.6096  142.8928  163.1171 C.2     1  UNL1        0.2323
     10 C         138.0215  142.0192  164.2647 C.2     1  UNL1        0.0486
     11 C         138.1872  140.6211  163.7469 C.3     1  UNL1        0.2428
     12 C         140.1541  139.9612  166.3938 C.3     1  UNL1        0.1813
     13 C         141.5441  139.6423  165.9289 C.3     1  UNL1        0.0698
     14 C         142.4996  140.5049  166.6988 C.3     1  UNL1        0.0978
     15 N         141.7002  141.3568  167.6396 N.am    1  UNL1       -0.2745
     16 C         142.2533  142.3673  168.6003 C.2     1  UNL1        0.2412
     17 O         143.7337  142.5965  168.6779 O.2     1  UNL1       -0.2737
     18 C         140.2506  141.0208  167.4511 C.3     1  UNL1        0.1399
     19 C         141.3261  143.1487  169.4833 C.3     1  UNL1        0.1901
     20 C         140.9012  142.5875  170.8079 C.1     1  UNL1        0.0830
     21 N         140.4764  142.0263  172.1325 N.1     1  UNL1       -0.1954
@<TRIPOS>BOND
     1     1     2    1
     2     2     3    1
     3     3     4    2
     4     4     5    1
     5     5     6    2
     6     6     7    1
     7     7     8    2
     8     8     9    1
     9     9    10    2
    10    10    11    1
    11    12     2    1
    12    12    13    1
    13    13    14    1
    14    14    15    1
    15    15    16   am
    16    16    17    2
    17    16    19    1
    18    19    20    1
    19    20    21    3
    20    15    18    1
    21    11     3    1
    22    18    12    1
    23    11     7    1
@<TRIPOS>MOLECULE
*****
 21 23 0 0 0
SMALL
GASTEIGER

@<TRIPOS>ATOM
      1 C         141.3337  139.5589  164.0007 C.3     1  UNL1        0.2532
      2 N         140.0160  140.1685  164.3776 N.pl3   1  UNL1       -0.1917
      3 C         139.2767  141.0248  163.3927 C.2     1  UNL1        0.3205
      4 N         138.7177  140.4161  162.1409 N.2     1  UNL1        0.0097
      5 C         137.9784  141.2723  161.1560 C.2     1  UNL1        0.4717
      6 N         137.7980  142.7374  161.4228 N.2     1  UNL1        0.0158
      7 C         138.3570  143.3461  162.6745 C.2     1  UNL1        0.3714
      8 N         138.3364  144.7494  163.2040 N.2     1  UNL1       -0.0339
      9 C         139.0630  144.7604  164.5162 C.2     1  UNL1        0.2323
     10 C         139.5327  143.3639  164.7977 C.2     1  UNL1        0.0486
     11 C         139.0963  142.4898  163.6595 C.3     1  UNL1        0.2428
     12 C         139.4377  139.9219  165.7396 C.3     1  UNL1        0.1813
     13 C         138.2313  139.0851  166.0468 C.3     1  UNL1        0.0698
     14 C         138.0122  139.1148  167.5304 C.3     1  UNL1        0.0978
     15 N         139.0832  139.9699  168.1401 N.am    1  UNL1       -0.2745
     16 C         139.2448  140.2730  169.6002 C.2     1  UNL1        0.2412
     17 O         138.2808  139.6998  170.5964 O.2     1  UNL1       -0.2737
     18 C         139.9642  140.4687  167.0333 C.3     1  UNL1        0.1399
     19 C         140.3704  141.1492  170.0642 C.3     1  UNL1        0.1901
     20 C         140.1606  142.6277  170.2058 C.1     1  UNL1        0.0830
     21 N         139.9508  144.1062  170.3474 N.1     1  UNL1       -0.1954
@<TRIPOS>BOND
     1     1     2    1
     2     2     3    1
     3     3     4    2
     4     4     5    1
     5     5     6    2
     6     6     7    1
     7     7     8    2
     8     8     9    1
     9     9    10    2
    10    10    11    1
    11    12     2    1
    12    12    13    1
    13    13    14    1
    14    14    15    1
    15    15    16   am
    16    16    17    2
    17    16    19    1
    18    19    20    1
    19    20    21    3
    20    15    18    1
    21    11     3    1
    22    18    12    1
    23    11     7    1
@<TRIPOS>MOLECULE
*****
 21 23 0 0 0
SMALL
GASTEIGER

@<TRIPOS>ATOM
      1 C         142.7982  140.1001  166.3276 C.3     1  UNL1        0.2532
      2 N         142.4170  141.4881  166.7498 N.pl3   1  UNL1       -0.1917
      3 C         142.2880  141.8200  168.2070 C.2     1  UNL1        0.3205
      4 N         143.3555  142.6215  168.8910 N.2     1  UNL1        0.0097
      5 C         143.2265  142.9534  170.3481 C.2     1  UNL1        0.4717
      6 N         142.0299  142.4837  171.1213 N.2     1  UNL1        0.0158
      7 C         140.9624  141.6821  170.4372 C.2     1  UNL1        0.3714
      8 N         139.6794  141.0867  170.9364 N.2     1  UNL1       -0.0339
      9 C         139.0155  140.3868  169.7878 C.2     1  UNL1        0.2323
     10 C         139.8881  140.5497  168.5787 C.2     1  UNL1        0.0486
     11 C         141.0915  141.3503  168.9801 C.3     1  UNL1        0.2428
     12 C         142.1649  142.5443  165.7149 C.3     1  UNL1        0.1813
     13 C         143.2130  143.3105  164.9636 C.3     1  UNL1        0.0698
     14 C         142.5163  144.2594  164.0340 C.3     1  UNL1        0.0978
     15 N         141.0376  144.0795  164.2107 N.am    1  UNL1       -0.2745
     16 C         139.9646  144.8283  163.4774 C.2     1  UNL1        0.2412
     17 O         140.3357  145.8663  162.4600 O.2     1  UNL1       -0.2737
     18 C         140.8205  143.0196  165.2496 C.3     1  UNL1        0.1399
     19 C         138.5203  144.5391  163.7613 C.3     1  UNL1        0.1901
     20 C         137.8820  143.2978  163.2121 C.1     1  UNL1        0.0830
     21 N         137.2436  142.0565  162.6629 N.1     1  UNL1       -0.1954
@<TRIPOS>BOND
     1     1     2    1
     2     2     3    1
     3     3     4    2
     4     4     5    1
     5     5     6    2
     6     6     7    1
     7     7     8    2
     8     8     9    1
     9     9    10    2
    10    10    11    1
    11    12     2    1
    12    12    13    1
    13    13    14    1
    14    14    15    1
    15    15    16   am
    16    16    17    2
    17    16    19    1
    18    19    20    1
    19    20    21    3
    20    15    18    1
    21    11     3    1
    22    18    12    1
    23    11     7    1
@<TRIPOS>MOLECULE
*****
 21 23 0 0 0
SMALL
GASTEIGER

@<TRIPOS>ATOM
      1 C         141.5226  139.7327  163.7927 C.3     1  UNL1        0.2532
      2 N         140.9142  140.8048  164.6472 N.pl3   1  UNL1       -0.1917
      3 C         141.0290  142.2439  164.2399 C.2     1  UNL1        0.3205
      4 N         142.3268  142.9736  164.4219 N.2     1  UNL1        0.0097
      5 C         142.4416  144.4126  164.0146 C.2     1  UNL1        0.4717
      6 N         141.2586  145.1221  163.4253 N.2     1  UNL1        0.0158
      7 C         139.9608  144.3923  163.2433 C.2     1  UNL1        0.3714
      8 N         138.6340  144.8259  162.6939 N.2     1  UNL1       -0.0339
      9 C         137.6993  143.6547  162.7617 C.2     1  UNL1        0.2323
     10 C         138.4483  142.4974  163.3530 C.2     1  UNL1        0.0486
     11 C         139.8460  142.9533  163.6506 C.3     1  UNL1        0.2428
     12 C         140.1909  140.4379  165.9092 C.3     1  UNL1        0.1813
     13 C         139.0269  139.4979  166.0167 C.3     1  UNL1        0.0698
     14 C         138.6213  139.4257  167.4590 C.3     1  UNL1        0.0978
     15 N         139.5345  140.3210  168.2428 N.am    1  UNL1       -0.2745
     16 C         139.4862  140.5505  169.7243 C.2     1  UNL1        0.2412
     17 O         138.4539  139.8511  170.5583 O.2     1  UNL1       -0.2737
     18 C         140.5046  140.9466  167.2849 C.3     1  UNL1        0.1399
     19 C         140.4700  141.4793  170.3719 C.3     1  UNL1        0.1901
     20 C         140.2523  142.9622  170.3130 C.1     1  UNL1        0.0830
     21 N         140.0346  144.4452  170.2540 N.1     1  UNL1       -0.1954
@<TRIPOS>BOND
     1     1     2    1
     2     2     3    1
     3     3     4    2
     4     4     5    1
     5     5     6    2
     6     6     7    1
     7     7     8    2
     8     8     9    1
     9     9    10    2
    10    10    11    1
    11    12     2    1
    12    12    13    1
    13    13    14    1
    14    14    15    1
    15    15    16   am
    16    16    17    2
    17    16    19    1
    18    19    20    1
    19    20    21    3
    20    15    18    1
    21    11     3    1
    22    18    12    1
    23    11     7    1
@<TRIPOS>MOLECULE
*****
 21 23 0 0 0
SMALL
GASTEIGER

@<TRIPOS>ATOM
      1 C         142.7131  141.7843  163.3610 C.3     1  UNL1        0.2532
      2 N         141.6896  141.1554  164.2592 N.pl3   1  UNL1       -0.1917
      3 C         140.2283  141.3319  163.9702 C.2     1  UNL1        0.3205
      4 N         139.4734  140.2608  163.2403 N.2     1  UNL1        0.0097
      5 C         138.0122  140.4374  162.9512 C.2     1  UNL1        0.4717
      6 N         137.3058  141.6851  163.3921 N.2     1  UNL1        0.0158
      7 C         138.0607  142.7562  164.1220 C.2     1  UNL1        0.3714
      8 N         137.6358  144.0840  164.6755 N.2     1  UNL1       -0.0339
      9 C         138.8345  144.7280  165.3066 C.2     1  UNL1        0.2323
     10 C         140.0002  143.7983  165.1432 C.2     1  UNL1        0.0486
     11 C         139.5220  142.5796  164.4110 C.3     1  UNL1        0.2428
     12 C         142.1273  140.3498  165.4465 C.3     1  UNL1        0.1813
     13 C         143.0140  139.1404  165.4130 C.3     1  UNL1        0.0698
     14 C         143.1899  138.6554  166.8214 C.3     1  UNL1        0.0978
     15 N         142.4118  139.5651  167.7254 N.am    1  UNL1       -0.2745
     16 C         142.3086  139.4480  169.2173 C.2     1  UNL1        0.2412
     17 O         143.0250  138.3421  169.9342 O.2     1  UNL1       -0.2737
     18 C         141.7551  140.6122  166.8757 C.3     1  UNL1        0.1399
     19 C         141.4891  140.4368  169.9923 C.3     1  UNL1        0.1901
     20 C         140.0237  140.1952  170.2027 C.1     1  UNL1        0.0830
     21 N         138.5583  139.9535  170.4131 N.1     1  UNL1       -0.1954
@<TRIPOS>BOND
     1     1     2    1
     2     2     3    1
     3     3     4    2
     4     4     5    1
     5     5     6    2
     6     6     7    1
     7     7     8    2
     8     8     9    1
     9     9    10    2
    10    10    11    1
    11    12     2    1
    12    12    13    1
    13    13    14    1
    14    14    15    1
    15    15    16   am
    16    16    17    2
    17    16    19    1
    18    19    20    1
    19    20    21    3
    20    15    18    1
    21    11     3    1
    22    18    12    1
    23    11     7    1
@<TRIPOS>MOLECULE
*****
 21 23 0 0 0
SMALL
GASTEIGER

@<TRIPOS>ATOM
      1 C         137.5849  138.4716  167.0542 C.3     1  UNL1        0.2532
      2 N         138.5959  139.2088  166.2269 N.pl3   1  UNL1       -0.1917
      3 C         138.5046  139.1800  164.7299 C.2     1  UNL1        0.3205
      4 N         138.8075  137.9142  163.9843 N.2     1  UNL1        0.0097
      5 C         138.7163  137.8853  162.4874 C.2     1  UNL1        0.4717
      6 N         138.3220  139.1223  161.7360 N.2     1  UNL1        0.0158
      7 C         138.0191  140.3881  162.4816 C.2     1  UNL1        0.3714
      8 N         137.6080  141.7534  162.0159 N.2     1  UNL1       -0.0339
      9 C         137.4453  142.6261  163.2250 C.2     1  UNL1        0.2323
     10 C         137.7557  141.8001  164.4380 C.2     1  UNL1        0.0486
     11 C         138.1104  140.4169  163.9786 C.3     1  UNL1        0.2428
     12 C         139.6982  139.9748  166.8965 C.3     1  UNL1        0.1813
     13 C         139.8666  140.1669  168.3745 C.3     1  UNL1        0.0698
     14 C         141.0980  140.9939  168.5971 C.3     1  UNL1        0.0978
     15 N         141.6906  141.3129  167.2565 N.am    1  UNL1       -0.2745
     16 C         142.9307  142.1201  167.0103 C.2     1  UNL1        0.2412
     17 O         143.6966  142.6901  168.1673 O.2     1  UNL1       -0.2737
     18 C         140.8255  140.6831  166.2055 C.3     1  UNL1        0.1399
     19 C         143.4049  142.3574  165.6071 C.3     1  UNL1        0.1901
     20 C         144.1830  141.2951  164.8887 C.1     1  UNL1        0.0830
     21 N         144.9611  140.2328  164.1703 N.1     1  UNL1       -0.1954
@<TRIPOS>BOND
     1     1     2    1
     2     2     3    1
     3     3     4    2
     4     4     5    1
     5     5     6    2
     6     6     7    1
     7     7     8    2
     8     8     9    1
     9     9    10    2
    10    10    11    1
    11    12     2    1
    12    12    13    1
    13    13    14    1
    14    14    15    1
    15    15    16   am
    16    16    17    2
    17    16    19    1
    18    19    20    1
    19    20    21    3
    20    15    18    1
    21    11     3    1
    22    18    12    1
    23    11     7    1
@<TRIPOS>MOLECULE
*****
 21 23 0 0 0
SMALL
GASTEIGER

@<TRIPOS>ATOM
      1 C         143.4277  142.5394  166.4569 C.3     1  UNL1        0.2532
      2 N         142.3745  141.5432  166.8419 N.pl3   1  UNL1       -0.1917
      3 C         142.2094  141.1436  168.2783 C.2     1  UNL1        0.3205
      4 N         142.8823  139.9064  168.7946 N.2     1  UNL1        0.0097
      5 C         142.7173  139.5068  170.2309 C.2     1  UNL1        0.4717
      6 N         141.8793  140.3443  171.1509 N.2     1  UNL1        0.0158
      7 C         141.2064  141.5814  170.6346 C.2     1  UNL1        0.3714
      8 N         140.3258  142.5971  171.3001 N.2     1  UNL1       -0.0339
      9 C         139.9466  143.6245  170.2751 C.2     1  UNL1        0.2323
     10 C         140.5928  143.2438  168.9761 C.2     1  UNL1        0.0486
     11 C         141.3715  141.9811  169.1983 C.3     1  UNL1        0.2428
     12 C         141.4862  140.9467  165.7906 C.3     1  UNL1        0.1813
     13 C         141.2442  141.5057  164.4199 C.3     1  UNL1        0.0698
     14 C         140.2925  140.5909  163.7076 C.3     1  UNL1        0.0978
     15 N         139.9462  139.4666  164.6382 N.am    1  UNL1       -0.2745
     16 C         139.0241  138.3231  164.3346 C.2     1  UNL1        0.2412
     17 O         138.3535  138.2355  162.9956 O.2     1  UNL1       -0.2737
     18 C         140.6840  139.6864  165.9255 C.3     1  UNL1        0.1399
     19 C         138.7726  137.2673  165.3699 C.3     1  UNL1        0.1901
     20 C         137.8205  137.5345  166.4978 C.1     1  UNL1        0.0830
     21 N         136.8685  137.8018  167.6257 N.1     1  UNL1       -0.1954
@<TRIPOS>BOND
     1     1     2    1
     2     2     3    1
     3     3     4    2
     4     4     5    1
     5     5     6    2
     6     6     7    1
     7     7     8    2
     8     8     9    1
     9     9    10    2
    10    10    11    1
    11    12     2    1
    12    12    13    1
    13    13    14    1
    14    14    15    1
    15    15    16   am
    16    16    17    2
    17    16    19    1
    18    19    20    1
    19    20    21    3
    20    15    18    1
    21    11     3    1
    22    18    12    1
    23    11     7    1
@<TRIPOS>MOLECULE
*****
 21 23 0 0 0
SMALL
GASTEIGER

@<TRIPOS>ATOM
      1 C         137.7814  138.4857  166.6135 C.3     1  UNL1        0.2532
      2 N         138.7009  139.5347  166.0618 N.pl3   1  UNL1       -0.1917
      3 C         138.3328  140.2701  164.8074 C.2     1  UNL1        0.3205
      4 N         137.9615  141.7220  164.8707 N.2     1  UNL1        0.0097
      5 C         137.5934  142.4574  163.6163 C.2     1  UNL1        0.4717
      6 N         137.5966  141.7409  162.2984 N.2     1  UNL1        0.0158
      7 C         137.9678  140.2889  162.2351 C.2     1  UNL1        0.3714
      8 N         138.0596  139.3255  161.0891 N.2     1  UNL1       -0.0339
      9 C         138.4845  137.9947  161.6353 C.2     1  UNL1        0.2323
     10 C         138.6552  138.1356  163.1189 C.2     1  UNL1        0.0486
     11 C         138.3359  139.5535  163.4896 C.3     1  UNL1        0.2428
     12 C         139.9885  139.8482  166.7646 C.3     1  UNL1        0.1813
     13 C         141.3538  139.8519  166.1434 C.3     1  UNL1        0.0698
     14 C         142.3459  140.2190  167.2068 C.3     1  UNL1        0.0978
     15 N         141.5937  140.4423  168.4852 N.am    1  UNL1       -0.2745
     16 C         142.1933  140.8272  169.8052 C.2     1  UNL1        0.2412
     17 O         143.6755  141.0228  169.9272 O.2     1  UNL1       -0.2737
     18 C         140.1368  140.2132  168.2120 C.3     1  UNL1        0.1399
     19 C         141.3107  141.0165  171.0032 C.3     1  UNL1        0.1901
     20 C         140.3482  142.1660  171.0516 C.1     1  UNL1        0.0830
     21 N         139.3858  143.3155  171.1000 N.1     1  UNL1       -0.1954
@<TRIPOS>BOND
     1     1     2    1
     2     2     3    1
     3     3     4    2
     4     4     5    1
     5     5     6    2
     6     6     7    1
     7     7     8    2
     8     8     9    1
     9     9    10    2
    10    10    11    1
    11    12     2    1
    12    12    13    1
    13    13    14    1
    14    14    15    1
    15    15    16   am
    16    16    17    2
    17    16    19    1
    18    19    20    1
    19    20    21    3
    20    15    18    1
    21    11     3    1
    22    18    12    1
    23    11     7    1
@<TRIPOS>MOLECULE
*****
 21 23 0 0 0
SMALL
GASTEIGER

@<TRIPOS>ATOM
      1 C         139.6758  140.3039  163.2261 C.3     1  UNL1        0.2532
      2 N         140.4784  140.2089  164.4897 N.pl3   1  UNL1       -0.1917
      3 C         141.9716  140.3430  164.4417 C.2     1  UNL1        0.3205
      4 N         142.8348  139.1164  164.4276 N.2     1  UNL1        0.0097
      5 C         144.3279  139.2505  164.3795 C.2     1  UNL1        0.4717
      6 N         144.9580  140.6114  164.3457 N.2     1  UNL1        0.0158
      7 C         144.0948  141.8380  164.3598 C.2     1  UNL1        0.3714
      8 N         144.4283  143.3003  164.3341 N.2     1  UNL1       -0.0339
      9 C         143.1412  144.0698  164.3662 C.2     1  UNL1        0.2323
     10 C         142.0122  143.0832  164.4118 C.2     1  UNL1        0.0486
     11 C         142.6016  141.7039  164.4078 C.3     1  UNL1        0.2428
     12 C         139.7877  139.9796  165.8014 C.3     1  UNL1        0.1813
     13 C         138.5536  139.1543  166.0157 C.3     1  UNL1        0.0698
     14 C         138.2131  139.2001  167.4758 C.3     1  UNL1        0.0978
     15 N         139.2368  140.0536  168.1639 N.am    1  UNL1       -0.2745
     16 C         139.2797  140.3699  169.6295 C.2     1  UNL1        0.2412
     17 O         138.2324  139.8132  170.5479 O.2     1  UNL1       -0.2737
     18 C         140.2099  140.5354  167.1291 C.3     1  UNL1        0.1399
     19 C         140.3699  141.2427  170.1768 C.3     1  UNL1        0.1901
     20 C         140.1915  142.7316  170.2134 C.1     1  UNL1        0.0830
     21 N         140.0130  144.2205  170.2499 N.1     1  UNL1       -0.1954
@<TRIPOS>BOND
     1     1     2    1
     2     2     3    1
     3     3     4    2
     4     4     5    1
     5     5     6    2
     6     6     7    1
     7     7     8    2
     8     8     9    1
     9     9    10    2
    10    10    11    1
    11    12     2    1
    12    12    13    1
    13    13    14    1
    14    14    15    1
    15    15    16   am
    16    16    17    2
    17    16    19    1
    18    19    20    1
    19    20    21    3
    20    15    18    1
    21    11     3    1
    22    18    12    1
    23    11     7    1
