@<TRIPOS>MOLECULE
*****
 19 21 0 0 0
SMALL
GASTEIGER

@<TRIPOS>ATOM
      1 C         143.8063  142.8499  164.9551 C.3     1  UNL1        0.0320
      2 C         142.9151  142.1329  165.9256 C.3     1  UNL1        0.1155
      3 C         143.2031  142.1965  167.3963 C.3     1  UNL1        0.0328
      4 C         142.3120  141.4796  168.3668 C.3     1  UNL1        0.0426
      5 C         142.6001  141.5432  169.8375 C.3     1  UNL1        0.0673
      6 S         141.7089  140.8263  170.8080 S.3     1  UNL1       -0.0807
      7 C         140.5297  140.0457  170.3077 C.2     1  UNL1        0.1483
      8 N         139.6385  139.3287  171.2782 N.pl3   1  UNL1       -0.3380
      9 N         140.2417  139.9821  168.8370 N.2     1  UNL1       -0.2464
     10 C         141.1328  140.6990  167.8666 C.3     1  UNL1        0.1548
     11 C         140.8448  140.6354  166.3959 C.3     1  UNL1        0.1705
     12 O         141.7360  141.3524  165.4254 O.3     1  UNL1       -0.3538
     13 H         139.8276  139.3705  172.2435 H       1  UNL1        0.1442
     14 H         138.8646  138.8164  170.9499 H       1  UNL1        0.1442
     15 C         139.9537  139.9185  167.3664 C.ar    1  UNL1        0.1108
     16 N         138.7489  139.5288  168.1705 N.ar    1  UNL1       -0.2392
     17 C         137.8228  138.7600  167.2753 C.ar    1  UNL1        0.1061
     18 C         138.4553  138.6745  165.9178 C.ar    1  UNL1        0.0572
     19 S         139.7722  139.3905  165.9741 S.2     1  UNL1       -0.0683
@<TRIPOS>BOND
     1     2     1    1
     2     2     3    1
     3     4     3    1
     4     4     5    1
     5     5     6    1
     6     6     7    1
     7     7     8    1
     8     7     9    2
     9     9    10    1
    10    10    15    1
    11    15    16   ar
    12    16    17   ar
    13    17    18   ar
    14    18    19   ar
    15    10    11    1
    16    11    12    1
    17    12     2    1
    18    10     4    1
    19    19    15   ar
    20     8    13    1
    21     8    14    1
@<TRIPOS>MOLECULE
*****
 19 21 0 0 0
SMALL
GASTEIGER

@<TRIPOS>ATOM
      1 C         137.7577  138.7575  166.8853 C.3     1  UNL1        0.0320
      2 C         139.0417  139.4809  167.1647 C.3     1  UNL1        0.1155
      3 C         139.3383  139.9746  168.5497 C.3     1  UNL1        0.0328
      4 C         140.6223  140.6980  168.8291 C.3     1  UNL1        0.0426
      5 C         140.9189  141.1917  170.2141 C.3     1  UNL1        0.0673
      6 S         142.2029  141.9151  170.4935 S.3     1  UNL1       -0.0807
      7 C         143.1903  142.1449  169.3879 C.2     1  UNL1        0.1483
      8 N         144.4743  142.8683  169.6673 N.pl3   1  UNL1       -0.3380
      9 N         142.8936  141.6511  168.0029 N.2     1  UNL1       -0.2464
     10 C         141.6097  140.9277  167.7235 C.3     1  UNL1        0.1548
     11 C         141.3130  140.4340  166.3385 C.3     1  UNL1        0.1705
     12 O         140.0290  139.7106  166.0591 O.3     1  UNL1       -0.3538
     13 H         144.6689  143.1923  170.5763 H       1  UNL1        0.1442
     14 H         145.1223  143.0190  168.9416 H       1  UNL1        0.1442
     15 C         142.5970  141.1574  166.6179 C.ar    1  UNL1        0.1108
     16 N         143.2233  140.0977  165.7608 N.ar    1  UNL1       -0.2392
     17 C         144.1449  140.7726  164.7884 C.ar    1  UNL1        0.1061
     18 C         144.0880  142.2495  165.0446 C.ar    1  UNL1        0.0572
     19 S         143.1314  142.4873  166.1752 S.2     1  UNL1       -0.0683
@<TRIPOS>BOND
     1     2     1    1
     2     2     3    1
     3     4     3    1
     4     4     5    1
     5     5     6    1
     6     6     7    1
     7     7     8    1
     8     7     9    2
     9     9    10    1
    10    10    15    1
    11    15    16   ar
    12    16    17   ar
    13    17    18   ar
    14    18    19   ar
    15    10    11    1
    16    11    12    1
    17    12     2    1
    18    10     4    1
    19    19    15   ar
    20     8    13    1
    21     8    14    1
@<TRIPOS>MOLECULE
*****
 19 21 0 0 0
SMALL
GASTEIGER

@<TRIPOS>ATOM
      1 C         137.1593  137.8264  167.3787 C.3     1  UNL1        0.0320
      2 C         138.1009  138.9544  167.0772 C.3     1  UNL1        0.1155
      3 C         138.1628  139.5302  165.6935 C.3     1  UNL1        0.0328
      4 C         139.1044  140.6582  165.3920 C.3     1  UNL1        0.0426
      5 C         139.1663  141.2339  164.0082 C.3     1  UNL1        0.0673
      6 S         140.1080  142.3619  163.7066 S.3     1  UNL1       -0.0807
      7 C         140.9877  142.9142  164.7889 C.2     1  UNL1        0.1483
      8 N         141.9293  144.0422  164.4874 N.pl3   1  UNL1       -0.3380
      9 N         140.9258  142.3384  166.1726 N.2     1  UNL1       -0.2464
     10 C         139.9841  141.2104  166.4741 C.3     1  UNL1        0.1548
     11 C         139.9222  140.6347  167.8578 C.3     1  UNL1        0.1705
     12 O         138.9806  139.5066  168.1593 O.3     1  UNL1       -0.3538
     13 H         141.9700  144.4201  163.5792 H       1  UNL1        0.1442
     14 H         142.5067  144.4047  165.1976 H       1  UNL1        0.1442
     15 C         140.8638  141.7627  167.5562 C.ar    1  UNL1        0.1108
     16 N         140.4214  142.6372  168.6918 N.ar    1  UNL1       -0.2392
     17 C         141.6246  142.9524  169.5303 C.ar    1  UNL1        0.1061
     18 C         142.8108  142.2727  168.9129 C.ar    1  UNL1        0.0572
     19 S         142.3406  141.5374  167.6929 S.2     1  UNL1       -0.0683
@<TRIPOS>BOND
     1     2     1    1
     2     2     3    1
     3     4     3    1
     4     4     5    1
     5     5     6    1
     6     6     7    1
     7     7     8    1
     8     7     9    2
     9     9    10    1
    10    10    15    1
    11    15    16   ar
    12    16    17   ar
    13    17    18   ar
    14    18    19   ar
    15    10    11    1
    16    11    12    1
    17    12     2    1
    18    10     4    1
    19    19    15   ar
    20     8    13    1
    21     8    14    1
@<TRIPOS>MOLECULE
*****
 19 21 0 0 0
SMALL
GASTEIGER

@<TRIPOS>ATOM
      1 C         142.6136  141.3012  168.5315 C.3     1  UNL1        0.0320
      2 C         142.2813  141.9515  167.2212 C.3     1  UNL1        0.1155
      3 C         143.3793  142.4782  166.3455 C.3     1  UNL1        0.0328
      4 C         143.0471  143.1285  165.0353 C.3     1  UNL1        0.0426
      5 C         144.1452  143.6551  164.1596 C.3     1  UNL1        0.0673
      6 S         143.8129  144.3055  162.8494 S.3     1  UNL1       -0.0807
      7 C         142.3825  144.4291  162.4149 C.2     1  UNL1        0.1483
      8 N         142.0502  145.0795  161.1046 N.pl3   1  UNL1       -0.3380
      9 N         141.2845  143.9025  163.2906 N.2     1  UNL1       -0.2464
     10 C         141.6167  143.2522  164.6008 C.3     1  UNL1        0.1548
     11 C         140.5187  142.7256  165.4765 C.3     1  UNL1        0.1705
     12 O         140.8510  142.0752  166.7867 O.3     1  UNL1       -0.3538
     13 H         142.7709  145.4251  160.5299 H       1  UNL1        0.1442
     14 H         141.1114  145.1606  160.8195 H       1  UNL1        0.1442
     15 C         140.1864  143.3759  164.1663 C.ar    1  UNL1        0.1108
     16 N         139.3372  142.2745  163.6044 N.ar    1  UNL1       -0.2392
     17 C         137.9800  142.8406  163.3082 C.ar    1  UNL1        0.1061
     18 C         137.9905  144.2920  163.6871 C.ar    1  UNL1        0.0572
     19 S         139.3541  144.6228  164.2174 S.2     1  UNL1       -0.0683
@<TRIPOS>BOND
     1     2     1    1
     2     2     3    1
     3     4     3    1
     4     4     5    1
     5     5     6    1
     6     6     7    1
     7     7     8    1
     8     7     9    2
     9     9    10    1
    10    10    15    1
    11    15    16   ar
    12    16    17   ar
    13    17    18   ar
    14    18    19   ar
    15    10    11    1
    16    11    12    1
    17    12     2    1
    18    10     4    1
    19    19    15   ar
    20     8    13    1
    21     8    14    1
@<TRIPOS>MOLECULE
*****
 19 21 0 0 0
SMALL
GASTEIGER

@<TRIPOS>ATOM
      1 C         142.7122  141.5026  169.8117 C.3     1  UNL1        0.0320
      2 C         141.6819  141.2853  168.7434 C.3     1  UNL1        0.1155
      3 C         141.2960  142.4133  167.8331 C.3     1  UNL1        0.0328
      4 C         140.2657  142.1961  166.7648 C.3     1  UNL1        0.0426
      5 C         139.8798  143.3242  165.8545 C.3     1  UNL1        0.0673
      6 S         138.8495  143.1070  164.7862 S.3     1  UNL1       -0.0807
      7 C         138.2051  141.7616  164.6281 C.2     1  UNL1        0.1483
      8 N         137.1749  141.5444  163.5598 N.pl3   1  UNL1       -0.3380
      9 N         138.5910  140.6336  165.5384 N.2     1  UNL1       -0.2464
     10 C         139.6213  140.8509  166.6067 C.3     1  UNL1        0.1548
     11 C         140.0072  139.7228  167.5170 C.3     1  UNL1        0.1705
     12 O         141.0375  139.9401  168.5853 O.3     1  UNL1       -0.3538
     13 H         136.9216  142.2848  162.9624 H       1  UNL1        0.1442
     14 H         136.7519  140.6615  163.4561 H       1  UNL1        0.1442
     15 C         138.9770  139.5056  166.4486 C.ar    1  UNL1        0.1108
     16 N         137.9710  138.8950  167.3789 N.ar    1  UNL1       -0.2392
     17 C         137.5977  137.5467  166.8377 C.ar    1  UNL1        0.1061
     18 C         138.3730  137.3240  165.5730 C.ar    1  UNL1        0.0572
     19 S         139.2254  138.5346  165.3325 S.2     1  UNL1       -0.0683
@<TRIPOS>BOND
     1     2     1    1
     2     2     3    1
     3     4     3    1
     4     4     5    1
     5     5     6    1
     6     6     7    1
     7     7     8    1
     8     7     9    2
     9     9    10    1
    10    10    15    1
    11    15    16   ar
    12    16    17   ar
    13    17    18   ar
    14    18    19   ar
    15    10    11    1
    16    11    12    1
    17    12     2    1
    18    10     4    1
    19    19    15   ar
    20     8    13    1
    21     8    14    1
@<TRIPOS>MOLECULE
*****
 19 21 0 0 0
SMALL
GASTEIGER

@<TRIPOS>ATOM
      1 C         138.3583  144.7544  165.1665 C.3     1  UNL1        0.0320
      2 C         139.6653  144.0248  165.0698 C.3     1  UNL1        0.1155
      3 C         140.7603  144.5603  164.1957 C.3     1  UNL1        0.0328
      4 C         142.0674  143.8307  164.0990 C.3     1  UNL1        0.0426
      5 C         143.1624  144.3662  163.2248 C.3     1  UNL1        0.0673
      6 S         144.4694  143.6366  163.1281 S.3     1  UNL1       -0.0807
      7 C         144.6814  142.3715  163.9057 C.2     1  UNL1        0.1483
      8 N         145.9885  141.6419  163.8091 N.pl3   1  UNL1       -0.3380
      9 N         143.5864  141.8360  164.7799 N.2     1  UNL1       -0.2464
     10 C         142.2794  142.5656  164.8765 C.3     1  UNL1        0.1548
     11 C         141.1844  142.0301  165.7507 C.3     1  UNL1        0.1705
     12 O         139.8774  142.7598  165.8474 O.3     1  UNL1       -0.3538
     13 H         146.7071  141.9933  163.2353 H       1  UNL1        0.1442
     14 H         146.1276  140.8115  164.3194 H       1  UNL1        0.1442
     15 C         142.4914  141.3005  165.6541 C.ar    1  UNL1        0.1108
     16 N         142.6082  141.1914  167.1455 N.ar    1  UNL1       -0.2392
     17 C         142.8129  139.7458  167.4899 C.ar    1  UNL1        0.1061
     18 C         142.8227  138.9616  166.2112 C.ar    1  UNL1        0.0572
     19 S         142.6240  139.9224  165.0767 S.2     1  UNL1       -0.0683
@<TRIPOS>BOND
     1     2     1    1
     2     2     3    1
     3     4     3    1
     4     4     5    1
     5     5     6    1
     6     6     7    1
     7     7     8    1
     8     7     9    2
     9     9    10    1
    10    10    15    1
    11    15    16   ar
    12    16    17   ar
    13    17    18   ar
    14    18    19   ar
    15    10    11    1
    16    11    12    1
    17    12     2    1
    18    10     4    1
    19    19    15   ar
    20     8    13    1
    21     8    14    1
@<TRIPOS>MOLECULE
*****
 19 21 0 0 0
SMALL
GASTEIGER

@<TRIPOS>ATOM
      1 C         140.1741  140.4351  168.3963 C.3     1  UNL1        0.0320
      2 C         140.7946  141.1053  167.2064 C.3     1  UNL1        0.1155
      3 C         140.1279  142.2961  166.5840 C.3     1  UNL1        0.0328
      4 C         140.7484  142.9663  165.3941 C.3     1  UNL1        0.0426
      5 C         140.0816  144.1572  164.7717 C.3     1  UNL1        0.0673
      6 S         140.7021  144.8273  163.5818 S.3     1  UNL1       -0.0807
      7 C         141.9893  144.3066  163.0143 C.2     1  UNL1        0.1483
      8 N         142.6098  144.9768  161.8244 N.pl3   1  UNL1       -0.3380
      9 N         142.6560  143.1158  163.6367 N.2     1  UNL1       -0.2464
     10 C         142.0355  142.4456  164.8266 C.3     1  UNL1        0.1548
     11 C         142.7022  141.2548  165.4490 C.3     1  UNL1        0.1705
     12 O         142.0817  140.5846  166.6389 O.3     1  UNL1       -0.3538
     13 H         142.1722  145.7584  161.4159 H       1  UNL1        0.1442
     14 H         143.4546  144.6351  161.4519 H       1  UNL1        0.1442
     15 C         143.3227  141.9250  164.2591 C.ar    1  UNL1        0.1108
     16 N         143.4758  140.7148  163.3861 N.ar    1  UNL1       -0.2392
     17 C         144.9306  140.5650  163.0523 C.ar    1  UNL1        0.1061
     18 C         145.6766  141.6826  163.7192 C.ar    1  UNL1        0.0572
     19 S         144.6829  142.5231  164.4649 S.2     1  UNL1       -0.0683
@<TRIPOS>BOND
     1     2     1    1
     2     2     3    1
     3     4     3    1
     4     4     5    1
     5     5     6    1
     6     6     7    1
     7     7     8    1
     8     7     9    2
     9     9    10    1
    10    10    15    1
    11    15    16   ar
    12    16    17   ar
    13    17    18   ar
    14    18    19   ar
    15    10    11    1
    16    11    12    1
    17    12     2    1
    18    10     4    1
    19    19    15   ar
    20     8    13    1
    21     8    14    1
@<TRIPOS>MOLECULE
*****
 19 21 0 0 0
SMALL
GASTEIGER

@<TRIPOS>ATOM
      1 C         144.7591  143.5325  165.2342 C.3     1  UNL1        0.0320
      2 C         143.6689  142.7941  165.9527 C.3     1  UNL1        0.1155
      3 C         142.6248  142.0523  165.1720 C.3     1  UNL1        0.0328
      4 C         141.5346  141.3140  165.8905 C.3     1  UNL1        0.0426
      5 C         140.4905  140.5721  165.1096 C.3     1  UNL1        0.0673
      6 S         139.4003  139.8338  165.8281 S.3     1  UNL1       -0.0807
      7 C         139.3541  139.8372  167.3274 C.2     1  UNL1        0.1483
      8 N         138.2639  139.0989  168.0459 N.pl3   1  UNL1       -0.3380
      9 N         140.3982  140.5790  168.1082 N.2     1  UNL1       -0.2464
     10 C         141.4884  141.3174  167.3897 C.3     1  UNL1        0.1548
     11 C         142.5325  142.0592  168.1705 C.3     1  UNL1        0.1705
     12 O         143.6227  142.7976  167.4520 O.3     1  UNL1       -0.3538
     13 H         137.5787  138.6120  167.5335 H       1  UNL1        0.1442
     14 H         138.2336  139.1011  169.0300 H       1  UNL1        0.1442
     15 C         141.4422  141.3208  168.8890 C.ar    1  UNL1        0.1108
     16 N         142.3122  140.5062  169.7997 N.ar    1  UNL1       -0.2392
     17 C         141.9256  140.8215  171.2145 C.ar    1  UNL1        0.1061
     18 C         140.8167  141.8309  171.1779 C.ar    1  UNL1        0.0572
     19 S         140.5179  142.1395  169.7408 S.2     1  UNL1       -0.0683
@<TRIPOS>BOND
     1     2     1    1
     2     2     3    1
     3     4     3    1
     4     4     5    1
     5     5     6    1
     6     6     7    1
     7     7     8    1
     8     7     9    2
     9     9    10    1
    10    10    15    1
    11    15    16   ar
    12    16    17   ar
    13    17    18   ar
    14    18    19   ar
    15    10    11    1
    16    11    12    1
    17    12     2    1
    18    10     4    1
    19    19    15   ar
    20     8    13    1
    21     8    14    1
@<TRIPOS>MOLECULE
*****
 19 21 0 0 0
SMALL
GASTEIGER

@<TRIPOS>ATOM
      1 C         138.3215  138.8465  165.8931 C.3     1  UNL1        0.0320
      2 C         138.9881  140.0832  165.3675 C.3     1  UNL1        0.1155
      3 C         138.1655  141.1704  164.7419 C.3     1  UNL1        0.0328
      4 C         138.8321  142.4071  164.2163 C.3     1  UNL1        0.0426
      5 C         138.0094  143.4943  163.5907 C.3     1  UNL1        0.0673
      6 S         138.6760  144.7310  163.0651 S.3     1  UNL1       -0.0807
      7 C         140.1653  144.8805  163.1652 C.2     1  UNL1        0.1483
      8 N         140.8318  146.1172  162.6396 N.pl3   1  UNL1       -0.3380
      9 N         140.9878  143.7933  163.7908 N.2     1  UNL1       -0.2464
     10 C         140.3212  142.5566  164.3164 C.3     1  UNL1        0.1548
     11 C         141.1438  141.4695  164.9420 C.3     1  UNL1        0.1705
     12 O         140.4772  140.2328  165.4676 O.3     1  UNL1       -0.3538
     13 H         140.2919  146.8308  162.2290 H       1  UNL1        0.1442
     14 H         141.8092  146.2153  162.7053 H       1  UNL1        0.1442
     15 C         141.8104  142.7062  164.4164 C.ar    1  UNL1        0.1108
     16 N         142.5999  142.8394  165.6848 N.ar    1  UNL1       -0.2392
     17 C         144.0490  142.9644  165.3179 C.ar    1  UNL1        0.1061
     18 C         144.1551  142.9083  163.8227 C.ar    1  UNL1        0.0572
     19 S         142.7716  142.7487  163.2655 S.2     1  UNL1       -0.0683
@<TRIPOS>BOND
     1     2     1    1
     2     2     3    1
     3     4     3    1
     4     4     5    1
     5     5     6    1
     6     6     7    1
     7     7     8    1
     8     7     9    2
     9     9    10    1
    10    10    15    1
    11    15    16   ar
    12    16    17   ar
    13    17    18   ar
    14    18    19   ar
    15    10    11    1
    16    11    12    1
    17    12     2    1
    18    10     4    1
    19    19    15   ar
    20     8    13    1
    21     8    14    1
