@<TRIPOS>MOLECULE
*****
 33 38 0 0 0
SMALL
GASTEIGER

@<TRIPOS>ATOM
      1 N         138.7141  141.0698  160.4180 N.ar    1  UNL1       -0.2702
      2 C         138.6787  142.5676  160.4907 C.ar    1  UNL1        0.3532
      3 O         137.6534  143.2530  161.3446 O.2     1  UNL1       -0.2443
      4 N         139.6686  143.3800  159.7096 N.ar    1  UNL1       -0.1606
      5 N         139.8758  144.8603  159.5845 N.ar    1  UNL1       -0.1372
      6 C         141.0292  145.0898  158.6533 C.ar    1  UNL1        0.2214
      7 N         141.5347  143.7513  158.2029 N.ar    1  UNL1       -0.2032
      8 C         140.6938  142.6945  158.8557 C.ar    1  UNL1        0.1717
      9 C         140.7292  141.1967  158.7830 C.ar    1  UNL1        0.0545
     10 C         141.6174  140.2490  158.0329 C.ar    1  UNL1       -0.0119
     11 C         141.1765  138.8508  158.3504 C.ar    1  UNL1        0.0248
     12 S         140.0158  138.9345  159.2967 S.2     1  UNL1       -0.0725
     13 C         139.7393  140.3844  159.5642 C.ar    1  UNL1        0.0965
     14 C         141.8890  137.6821  157.7367 C.3     1  UNL1        0.1263
     15 N         143.0424  137.9116  156.8055 N.am    1  UNL1       -0.2744
     16 C         143.7548  136.7430  156.1919 C.2     1  UNL1        0.2310
     17 O         144.9081  136.9724  155.2607 O.2     1  UNL1       -0.2747
     18 C         143.4832  139.3098  156.4880 C.3     1  UNL1        0.0984
     19 C         142.7708  140.4784  157.1017 C.3     1  UNL1        0.0482
     20 C         143.3139  135.3448  156.5094 C.3     1  UNL1        0.1431
     21 C         143.3685  134.1348  157.3943 C.3     1  UNL1        0.0817
     22 C         142.4956  134.1331  156.1744 C.3     1  UNL1        0.2727
     23 F         141.9098  132.7559  156.2753 F       1  UNL1       -0.2038
     24 F         141.8262  134.6097  154.9196 F       1  UNL1       -0.2038
     25 C         137.7242  140.2573  161.1992 C.3     1  UNL1        0.1378
     26 C         138.5690  139.2002  165.4909 C.ar    1  UNL1        0.1387
     27 C         138.0633  140.5684  165.1410 C.ar    1  UNL1        0.0366
     28 C         137.7817  140.9208  163.7105 C.ar    1  UNL1        0.0007
     29 C         138.0058  139.9050  162.6297 C.ar    1  UNL1        0.0007
     30 C         138.5115  138.5368  162.9796 C.ar    1  UNL1        0.0007
     31 C         138.7931  138.1845  164.4102 C.ar    1  UNL1        0.0366
     32 C         139.4367  139.8740  167.8453 C.3     1  UNL1        0.2525
     33 O         138.8506  138.8478  166.9215 O.3     1  UNL1       -0.4714
@<TRIPOS>BOND
     1    32    33    1
     2    33    26    1
     3    26    27   ar
     4    27    28   ar
     5    28    29   ar
     6    29    25    1
     7    25     1    1
     8     1     2   ar
     9     2     3    2
    10     2     4   ar
    11     4     5   ar
    12     5     6   ar
    13     6     7   ar
    14     7     8   ar
    15     8     9   ar
    16     9    10   ar
    17    10    11   ar
    18    11    12   ar
    19    12    13   ar
    20    11    14    1
    21    14    15    1
    22    15    16   am
    23    16    17    2
    24    16    20    1
    25    20    21    1
    26    21    22    1
    27    22    23    1
    28    22    24    1
    29    15    18    1
    30    18    19    1
    31    29    30   ar
    32    30    31   ar
    33    31    26   ar
    34    13     1   ar
    35    22    20    1
    36     8     4   ar
    37    13     9   ar
    38    19    10    1
@<TRIPOS>MOLECULE
*****
 33 38 0 0 0
SMALL
GASTEIGER

@<TRIPOS>ATOM
      1 N         143.1091  142.2327  166.9282 N.ar    1  UNL1       -0.2702
      2 C         143.0272  142.1278  168.4223 C.ar    1  UNL1        0.3532
      3 O         143.9972  142.8833  169.2816 O.2     1  UNL1       -0.2443
      4 N         141.9751  141.2674  169.0571 N.ar    1  UNL1       -0.1606
      5 N         141.6522  140.9708  170.4916 N.ar    1  UNL1       -0.1372
      6 C         140.4826  140.0321  170.5188 C.ar    1  UNL1        0.2214
      7 N         140.0826  139.7485  169.1012 N.ar    1  UNL1       -0.2032
      8 C         141.0051  140.5119  168.1978 C.ar    1  UNL1        0.1717
      9 C         141.0871  140.6169  166.7037 C.ar    1  UNL1        0.0545
     10 C         140.2744  139.9938  165.6077 C.ar    1  UNL1       -0.0119
     11 C         140.8242  140.4691  164.2955 C.ar    1  UNL1        0.0248
     12 S         141.9766  141.3859  164.5805 S.2     1  UNL1       -0.0725
     13 C         142.1392  141.4772  166.0689 C.ar    1  UNL1        0.0965
     14 C         140.2043  140.0056  163.0106 C.3     1  UNL1        0.1263
     15 N         139.0347  139.0669  163.0378 N.am    1  UNL1       -0.2744
     16 C         138.4149  138.6034  161.7530 C.2     1  UNL1        0.2310
     17 O         137.2453  137.6647  161.7802 O.2     1  UNL1       -0.2747
     18 C         138.4850  138.5916  164.3501 C.3     1  UNL1        0.0984
     19 C         139.1048  139.0550  165.6349 C.3     1  UNL1        0.0482
     20 C         138.9647  139.0787  160.4408 C.3     1  UNL1        0.1431
     21 C         138.8069  139.8702  159.1763 C.3     1  UNL1        0.0817
     22 C         140.0747  139.1105  159.4324 C.3     1  UNL1        0.2727
     23 F         140.8362  139.4466  158.1846 F       1  UNL1       -0.2038
     24 F         141.0780  138.2341  160.1217 F       1  UNL1       -0.2038
     25 C         144.1612  143.0931  166.2933 C.3     1  UNL1        0.1378
     26 C         144.9161  142.8255  161.8652 C.ar    1  UNL1        0.1387
     27 C         144.1065  143.9594  162.4208 C.ar    1  UNL1        0.0366
     28 C         143.8549  144.0486  163.8969 C.ar    1  UNL1        0.0007
     29 C         144.4129  143.0039  164.8173 C.ar    1  UNL1        0.0007
     30 C         145.2225  141.8700  164.2617 C.ar    1  UNL1        0.0007
     31 C         145.4741  141.7808  162.7856 C.ar    1  UNL1        0.0366
     32 C         144.0360  142.4341  159.4523 C.3     1  UNL1        0.2525
     33 O         145.1678  142.7363  160.3891 O.3     1  UNL1       -0.4714
@<TRIPOS>BOND
     1    32    33    1
     2    33    26    1
     3    26    27   ar
     4    27    28   ar
     5    28    29   ar
     6    29    25    1
     7    25     1    1
     8     1     2   ar
     9     2     3    2
    10     2     4   ar
    11     4     5   ar
    12     5     6   ar
    13     6     7   ar
    14     7     8   ar
    15     8     9   ar
    16     9    10   ar
    17    10    11   ar
    18    11    12   ar
    19    12    13   ar
    20    11    14    1
    21    14    15    1
    22    15    16   am
    23    16    17    2
    24    16    20    1
    25    20    21    1
    26    21    22    1
    27    22    23    1
    28    22    24    1
    29    15    18    1
    30    18    19    1
    31    29    30   ar
    32    30    31   ar
    33    31    26   ar
    34    13     1   ar
    35    22    20    1
    36     8     4   ar
    37    13     9   ar
    38    19    10    1
@<TRIPOS>MOLECULE
*****
 33 38 0 0 0
SMALL
GASTEIGER

@<TRIPOS>ATOM
      1 N         143.8189  141.8460  161.0511 N.ar    1  UNL1       -0.2702
      2 C         143.3573  143.2732  161.0315 C.ar    1  UNL1        0.3532
      3 O         143.8490  144.2348  162.0724 O.2     1  UNL1       -0.2443
      4 N         142.4040  143.7385  159.9710 N.ar    1  UNL1       -0.1606
      5 N         141.7791  145.0748  159.6996 N.ar    1  UNL1       -0.1372
      6 C         140.9012  144.9390  158.4909 C.ar    1  UNL1        0.2214
      7 N         140.9835  143.5187  158.0153 N.ar    1  UNL1       -0.2032
      8 C         141.9124  142.7768  158.9301 C.ar    1  UNL1        0.1717
      9 C         142.3740  141.3497  158.9497 C.ar    1  UNL1        0.0545
     10 C         142.0629  140.1819  158.0612 C.ar    1  UNL1       -0.0119
     11 C         142.8239  138.9948  158.5726 C.ar    1  UNL1        0.0248
     12 S         143.6053  139.4289  159.7772 S.2     1  UNL1       -0.0725
     13 C         143.3273  140.8844  160.0103 C.ar    1  UNL1        0.0965
     14 C         142.7071  137.6718  157.8754 C.3     1  UNL1        0.1263
     15 N         141.8292  137.5360  156.6667 N.am    1  UNL1       -0.2744
     16 C         141.7123  136.2131  155.9696 C.2     1  UNL1        0.2310
     17 O         140.8344  136.0773  154.7609 O.2     1  UNL1       -0.2747
     18 C         141.0682  138.7232  156.1554 C.3     1  UNL1        0.0984
     19 C         141.1850  140.0461  156.8526 C.3     1  UNL1        0.0482
     20 C         142.4733  135.0260  156.4809 C.3     1  UNL1        0.1431
     21 C         143.6413  134.4559  157.2299 C.3     1  UNL1        0.0817
     22 C         142.6234  133.5398  156.6178 C.3     1  UNL1        0.2727
     23 F         143.1962  132.2116  157.0151 F       1  UNL1       -0.2038
     24 F         141.4067  133.0849  155.8677 F       1  UNL1       -0.2038
     25 C         144.7722  141.3806  162.1117 C.3     1  UNL1        0.1378
     26 C         143.1932  139.7116  165.9810 C.ar    1  UNL1        0.1387
     27 C         143.6915  138.7846  164.9122 C.ar    1  UNL1        0.0366
     28 C         144.2178  139.3409  163.6224 C.ar    1  UNL1        0.0007
     29 C         144.2459  140.8243  163.4014 C.ar    1  UNL1        0.0007
     30 C         143.7476  141.7513  164.4702 C.ar    1  UNL1        0.0007
     31 C         143.2213  141.1950  165.7600 C.ar    1  UNL1        0.0366
     32 C         141.9143  140.0420  168.2182 C.3     1  UNL1        0.2525
     33 O         142.6669  139.1554  167.2708 O.3     1  UNL1       -0.4714
@<TRIPOS>BOND
     1    32    33    1
     2    33    26    1
     3    26    27   ar
     4    27    28   ar
     5    28    29   ar
     6    29    25    1
     7    25     1    1
     8     1     2   ar
     9     2     3    2
    10     2     4   ar
    11     4     5   ar
    12     5     6   ar
    13     6     7   ar
    14     7     8   ar
    15     8     9   ar
    16     9    10   ar
    17    10    11   ar
    18    11    12   ar
    19    12    13   ar
    20    11    14    1
    21    14    15    1
    22    15    16   am
    23    16    17    2
    24    16    20    1
    25    20    21    1
    26    21    22    1
    27    22    23    1
    28    22    24    1
    29    15    18    1
    30    18    19    1
    31    29    30   ar
    32    30    31   ar
    33    31    26   ar
    34    13     1   ar
    35    22    20    1
    36     8     4   ar
    37    13     9   ar
    38    19    10    1
@<TRIPOS>MOLECULE
*****
 33 38 0 0 0
SMALL
GASTEIGER

@<TRIPOS>ATOM
      1 N         142.3346  138.5040  156.8387 N.ar    1  UNL1       -0.2702
      2 C         143.3505  139.1289  155.9289 C.ar    1  UNL1        0.3532
      3 O         143.4851  138.6501  154.5137 O.2     1  UNL1       -0.2443
      4 N         144.2315  140.2326  156.4344 N.ar    1  UNL1       -0.1606
      5 N         145.3147  141.0339  155.7751 N.ar    1  UNL1       -0.1372
      6 C         145.8495  142.0078  156.7828 C.ar    1  UNL1        0.2214
      7 N         145.0967  141.8085  158.0649 N.ar    1  UNL1       -0.2032
      8 C         144.0968  140.7114  157.8496 C.ar    1  UNL1        0.1717
      9 C         143.0810  140.0864  158.7592 C.ar    1  UNL1        0.0545
     10 C         142.7215  140.3472  160.1920 C.ar    1  UNL1       -0.0119
     11 C         141.6182  139.4047  160.5720 C.ar    1  UNL1        0.0248
     12 S         141.2958  138.5614  159.3741 S.2     1  UNL1       -0.0725
     13 C         142.1999  138.9827  158.2537 C.ar    1  UNL1        0.0965
     14 C         141.0497  139.4361  161.9597 C.3     1  UNL1        0.1263
     15 N         141.5844  140.4100  162.9675 N.am    1  UNL1       -0.2744
     16 C         141.0159  140.4414  164.3551 C.2     1  UNL1        0.2310
     17 O         141.5506  141.4153  165.3628 O.2     1  UNL1       -0.2747
     18 C         142.6877  141.3525  162.5874 C.3     1  UNL1        0.0984
     19 C         143.2562  141.3211  161.1997 C.3     1  UNL1        0.0482
     20 C         139.9126  139.4989  164.7351 C.3     1  UNL1        0.1431
     21 C         138.4697  139.2527  165.0631 C.3     1  UNL1        0.0817
     22 C         139.4445  138.1125  165.0654 C.3     1  UNL1        0.2727
     23 F         138.5273  136.9864  165.4400 F       1  UNL1       -0.2038
     24 F         140.7378  137.3636  164.9375 F       1  UNL1       -0.2038
     25 C         141.4535  137.4002  156.3331 C.3     1  UNL1        0.1378
     26 C         142.9386  133.1523  156.3429 C.ar    1  UNL1        0.1387
     27 C         143.5618  134.1668  157.2552 C.ar    1  UNL1        0.0366
     28 C         143.0668  135.5828  157.2519 C.ar    1  UNL1        0.0007
     29 C         141.9485  135.9843  156.3364 C.ar    1  UNL1        0.0007
     30 C         141.3253  134.9698  155.4241 C.ar    1  UNL1        0.0007
     31 C         141.8203  133.5538  155.4273 C.ar    1  UNL1        0.0366
     32 C         144.8906  131.4507  156.1326 C.3     1  UNL1        0.2525
     33 O         143.4336  131.7363  156.3460 O.3     1  UNL1       -0.4714
@<TRIPOS>BOND
     1    32    33    1
     2    33    26    1
     3    26    27   ar
     4    27    28   ar
     5    28    29   ar
     6    29    25    1
     7    25     1    1
     8     1     2   ar
     9     2     3    2
    10     2     4   ar
    11     4     5   ar
    12     5     6   ar
    13     6     7   ar
    14     7     8   ar
    15     8     9   ar
    16     9    10   ar
    17    10    11   ar
    18    11    12   ar
    19    12    13   ar
    20    11    14    1
    21    14    15    1
    22    15    16   am
    23    16    17    2
    24    16    20    1
    25    20    21    1
    26    21    22    1
    27    22    23    1
    28    22    24    1
    29    15    18    1
    30    18    19    1
    31    29    30   ar
    32    30    31   ar
    33    31    26   ar
    34    13     1   ar
    35    22    20    1
    36     8     4   ar
    37    13     9   ar
    38    19    10    1
@<TRIPOS>MOLECULE
*****
 33 38 0 0 0
SMALL
GASTEIGER

@<TRIPOS>ATOM
      1 N         138.8174  141.4794  162.6374 N.ar    1  UNL1       -0.2702
      2 C         138.4774  142.8804  163.0521 C.ar    1  UNL1        0.3532
      3 O         137.6548  143.1192  164.2835 O.2     1  UNL1       -0.2443
      4 N         138.9600  144.0422  162.2354 N.ar    1  UNL1       -0.1606
      5 N         138.7841  145.5233  162.3952 N.ar    1  UNL1       -0.1372
      6 C         139.4980  146.1997  161.2625 C.ar    1  UNL1        0.2214
      7 N         140.1151  145.1367  160.4028 N.ar    1  UNL1       -0.2032
      8 C         139.7826  143.8033  161.0040 C.ar    1  UNL1        0.1717
      9 C         140.1226  142.4024  160.5894 C.ar    1  UNL1        0.0545
     10 C         140.9100  141.8610  159.4332 C.ar    1  UNL1       -0.0119
     11 C         140.9141  140.3645  159.5353 C.ar    1  UNL1        0.0248
     12 S         140.1292  139.9810  160.7546 S.2     1  UNL1       -0.0725
     13 C         139.6399  141.2405  161.4061 C.ar    1  UNL1        0.0965
     14 C         141.6321  139.5444  158.5048 C.3     1  UNL1        0.1263
     15 N         142.3460  140.2208  157.3722 N.am    1  UNL1       -0.2744
     16 C         143.0639  139.4007  156.3417 C.2     1  UNL1        0.2310
     17 O         143.7778  140.0770  155.2091 O.2     1  UNL1       -0.2747
     18 C         142.3419  141.7173  157.2701 C.3     1  UNL1        0.0984
     19 C         141.6239  142.5374  158.3005 C.3     1  UNL1        0.0482
     20 C         143.0680  137.9042  156.4439 C.3     1  UNL1        0.1431
     21 C         142.4401  136.6340  156.9363 C.3     1  UNL1        0.0817
     22 C         143.7030  136.5823  156.1283 C.3     1  UNL1        0.2727
     23 F         143.9262  135.0996  156.0886 F       1  UNL1       -0.2038
     24 F         144.8881  137.0456  155.3342 F       1  UNL1       -0.2038
     25 C         138.3348  140.3174  163.4542 C.3     1  UNL1        0.1378
     26 C         139.6737  139.8592  167.7259 C.ar    1  UNL1        0.1387
     27 C         138.4284  139.1701  167.2522 C.ar    1  UNL1        0.0366
     28 C         137.9821  139.3229  165.8283 C.ar    1  UNL1        0.0007
     29 C         138.7811  140.1647  164.8781 C.ar    1  UNL1        0.0007
     30 C         140.0264  140.8538  165.3517 C.ar    1  UNL1        0.0007
     31 C         140.4727  140.7011  166.7756 C.ar    1  UNL1        0.0366
     32 C         141.3883  140.3606  169.6123 C.3     1  UNL1        0.2525
     33 O         140.1201  139.7066  169.1498 O.3     1  UNL1       -0.4714
@<TRIPOS>BOND
     1    32    33    1
     2    33    26    1
     3    26    27   ar
     4    27    28   ar
     5    28    29   ar
     6    29    25    1
     7    25     1    1
     8     1     2   ar
     9     2     3    2
    10     2     4   ar
    11     4     5   ar
    12     5     6   ar
    13     6     7   ar
    14     7     8   ar
    15     8     9   ar
    16     9    10   ar
    17    10    11   ar
    18    11    12   ar
    19    12    13   ar
    20    11    14    1
    21    14    15    1
    22    15    16   am
    23    16    17    2
    24    16    20    1
    25    20    21    1
    26    21    22    1
    27    22    23    1
    28    22    24    1
    29    15    18    1
    30    18    19    1
    31    29    30   ar
    32    30    31   ar
    33    31    26   ar
    34    13     1   ar
    35    22    20    1
    36     8     4   ar
    37    13     9   ar
    38    19    10    1
@<TRIPOS>MOLECULE
*****
 33 38 0 0 0
SMALL
GASTEIGER

@<TRIPOS>ATOM
      1 N         139.3679  143.1110  161.6622 N.ar    1  UNL1       -0.2702
      2 C         138.7035  142.2854  160.6005 C.ar    1  UNL1        0.3532
      3 O         138.5584  142.8282  159.2096 O.2     1  UNL1       -0.2443
      4 N         138.1844  140.9172  160.9297 N.ar    1  UNL1       -0.1606
      5 N         137.4897  139.8803  160.0977 N.ar    1  UNL1       -0.1372
      6 C         137.2056  138.6968  160.9744 C.ar    1  UNL1        0.2214
      7 N         137.7246  139.0022  162.3482 N.ar    1  UNL1       -0.2032
      8 C         138.3296  140.3746  162.3206 C.ar    1  UNL1        0.1717
      9 C         138.9939  141.2002  163.3822 C.ar    1  UNL1        0.0545
     10 C         139.2780  140.9327  164.8306 C.ar    1  UNL1       -0.0119
     11 C         139.9727  142.1356  165.3965 C.ar    1  UNL1        0.0248
     12 S         140.1180  143.1466  164.2979 S.2     1  UNL1       -0.0725
     13 C         139.5131  142.5684  163.0529 C.ar    1  UNL1        0.0965
     14 C         140.3833  142.1551  166.8391 C.3     1  UNL1        0.1263
     15 N         140.0992  140.9716  167.7158 N.am    1  UNL1       -0.2744
     16 C         140.5097  140.9910  169.1583 C.2     1  UNL1        0.2310
     17 O         140.2256  139.8075  170.0350 O.2     1  UNL1       -0.2747
     18 C         139.4044  139.7687  167.1498 C.3     1  UNL1        0.0984
     19 C         138.9939  139.7492  165.7072 C.3     1  UNL1        0.0482
     20 C         141.2044  142.1940  169.7242 C.3     1  UNL1        0.1431
     21 C         141.1712  143.6307  170.1542 C.3     1  UNL1        0.0817
     22 C         142.4408  142.8409  170.2744 C.3     1  UNL1        0.2727
     23 F         143.3454  143.8884  170.8526 F       1  UNL1       -0.2038
     24 F         143.3962  141.6874  170.1938 F       1  UNL1       -0.2038
     25 C         139.8870  144.4794  161.3329 C.3     1  UNL1        0.1378
     26 C         141.9223  145.2249  157.3893 C.ar    1  UNL1        0.1387
     27 C         142.4978  144.2311  158.3542 C.ar    1  UNL1        0.0366
     28 C         141.8194  143.9826  159.6688 C.ar    1  UNL1        0.0007
     29 C         140.5654  144.7279  160.0184 C.ar    1  UNL1        0.0007
     30 C         139.9900  145.7217  159.0534 C.ar    1  UNL1        0.0007
     31 C         140.6684  145.9702  157.7389 C.ar    1  UNL1        0.0366
     32 C         141.8410  145.2962  154.7935 C.3     1  UNL1        0.2525
     33 O         142.6006  145.4735  156.0747 O.3     1  UNL1       -0.4714
@<TRIPOS>BOND
     1    32    33    1
     2    33    26    1
     3    26    27   ar
     4    27    28   ar
     5    28    29   ar
     6    29    25    1
     7    25     1    1
     8     1     2   ar
     9     2     3    2
    10     2     4   ar
    11     4     5   ar
    12     5     6   ar
    13     6     7   ar
    14     7     8   ar
    15     8     9   ar
    16     9    10   ar
    17    10    11   ar
    18    11    12   ar
    19    12    13   ar
    20    11    14    1
    21    14    15    1
    22    15    16   am
    23    16    17    2
    24    16    20    1
    25    20    21    1
    26    21    22    1
    27    22    23    1
    28    22    24    1
    29    15    18    1
    30    18    19    1
    31    29    30   ar
    32    30    31   ar
    33    31    26   ar
    34    13     1   ar
    35    22    20    1
    36     8     4   ar
    37    13     9   ar
    38    19    10    1
@<TRIPOS>MOLECULE
*****
 33 38 0 0 0
SMALL
GASTEIGER

@<TRIPOS>ATOM
      1 N         142.3557  137.3522  156.0353 N.ar    1  UNL1       -0.2702
      2 C         142.5882  137.8480  154.6387 C.ar    1  UNL1        0.3532
      3 O         142.2047  136.9945  153.4663 O.2     1  UNL1       -0.2443
      4 N         143.2042  139.1972  154.4148 N.ar    1  UNL1       -0.1606
      5 N         143.5516  139.9466  153.1627 N.ar    1  UNL1       -0.1372
      6 C         144.1498  141.2631  153.5614 C.ar    1  UNL1        0.2214
      7 N         144.1720  141.3274  155.0598 N.ar    1  UNL1       -0.2032
      8 C         143.5876  140.0506  155.5873 C.ar    1  UNL1        0.1717
      9 C         143.3551  139.5548  156.9837 C.ar    1  UNL1        0.0545
     10 C         143.6283  140.1680  158.3251 C.ar    1  UNL1       -0.0119
     11 C         143.1811  139.1978  159.3781 C.ar    1  UNL1        0.0248
     12 S         142.6316  137.9850  158.6875 S.2     1  UNL1       -0.0725
     13 C         142.7391  138.2055  157.2077 C.ar    1  UNL1        0.0965
     14 C         143.3322  139.5442  160.8297 C.3     1  UNL1        0.1263
     15 N         143.9303  140.8607  161.2284 N.am    1  UNL1       -0.2744
     16 C         144.0813  141.2070  162.6800 C.2     1  UNL1        0.2310
     17 O         144.6795  142.5235  163.0786 O.2     1  UNL1       -0.2747
     18 C         144.3774  141.8309  160.1753 C.3     1  UNL1        0.0984
     19 C         144.2264  141.4846  158.7238 C.3     1  UNL1        0.0482
     20 C         143.6342  140.2368  163.7329 C.3     1  UNL1        0.1431
     21 C         142.5364  139.6142  164.5436 C.3     1  UNL1        0.0817
     22 C         143.9576  139.1790  164.7461 C.3     1  UNL1        0.2727
     23 F         143.7640  138.1480  165.8183 F       1  UNL1       -0.2038
     24 F         145.4459  139.1020  164.5763 F       1  UNL1       -0.2038
     25 C         141.7397  136.0029  156.2592 C.3     1  UNL1        0.1378
     26 C         144.3016  132.3065  156.1065 C.ar    1  UNL1        0.1387
     27 C         144.3338  133.1919  157.3169 C.ar    1  UNL1        0.0366
     28 C         143.4798  134.4240  157.3678 C.ar    1  UNL1        0.0007
     29 C         142.5936  134.7708  156.2083 C.ar    1  UNL1        0.0007
     30 C         142.5614  133.8854  154.9979 C.ar    1  UNL1        0.0007
     31 C         143.4154  132.6532  154.9470 C.ar    1  UNL1        0.0366
     32 C         144.5373  129.7241  156.2672 C.3     1  UNL1        0.2525
     33 O         145.1556  131.0743  156.0555 O.3     1  UNL1       -0.4714
@<TRIPOS>BOND
     1    32    33    1
     2    33    26    1
     3    26    27   ar
     4    27    28   ar
     5    28    29   ar
     6    29    25    1
     7    25     1    1
     8     1     2   ar
     9     2     3    2
    10     2     4   ar
    11     4     5   ar
    12     5     6   ar
    13     6     7   ar
    14     7     8   ar
    15     8     9   ar
    16     9    10   ar
    17    10    11   ar
    18    11    12   ar
    19    12    13   ar
    20    11    14    1
    21    14    15    1
    22    15    16   am
    23    16    17    2
    24    16    20    1
    25    20    21    1
    26    21    22    1
    27    22    23    1
    28    22    24    1
    29    15    18    1
    30    18    19    1
    31    29    30   ar
    32    30    31   ar
    33    31    26   ar
    34    13     1   ar
    35    22    20    1
    36     8     4   ar
    37    13     9   ar
    38    19    10    1
@<TRIPOS>MOLECULE
*****
 33 38 0 0 0
SMALL
GASTEIGER

@<TRIPOS>ATOM
      1 N         141.5349  136.2072  155.0667 N.ar    1  UNL1       -0.2702
      2 C         140.4276  136.1343  154.0574 C.ar    1  UNL1        0.3532
      3 O         140.5636  135.2441  152.8578 O.2     1  UNL1       -0.2443
      4 N         139.1844  136.9518  154.2477 N.ar    1  UNL1       -0.1606
      5 N         137.9358  137.0855  153.4273 N.ar    1  UNL1       -0.1372
      6 C         137.0282  138.0584  154.1198 C.ar    1  UNL1        0.2214
      7 N         137.7158  138.5260  155.3683 N.ar    1  UNL1       -0.2032
      8 C         139.0484  137.8420  155.4473 C.ar    1  UNL1        0.1717
      9 C         140.1557  137.9148  156.4566 C.ar    1  UNL1        0.0545
     10 C         140.3049  138.6962  157.7283 C.ar    1  UNL1       -0.0119
     11 C         141.6403  138.3617  158.3239 C.ar    1  UNL1        0.0248
     12 S         142.3164  137.3736  157.4204 S.2     1  UNL1       -0.0725
     13 C         141.3989  137.0973  156.2662 C.ar    1  UNL1        0.0965
     14 C         142.0680  139.0001  159.6121 C.3     1  UNL1        0.1263
     15 N         141.1604  139.9730  160.3047 N.am    1  UNL1       -0.2744
     16 C         141.5881  140.6114  161.5928 C.2     1  UNL1        0.2310
     17 O         140.6805  141.5843  162.2854 O.2     1  UNL1       -0.2747
     18 C         139.8250  140.3074  159.7090 C.3     1  UNL1        0.0984
     19 C         139.3972  139.6691  158.4208 C.3     1  UNL1        0.0482
     20 C         142.9235  140.2769  162.1885 C.3     1  UNL1        0.1431
     21 C         144.3840  140.5766  162.3539 C.3     1  UNL1        0.0817
     22 C         143.7761  139.3978  163.0547 C.3     1  UNL1        0.2727
     23 F         144.9857  138.8637  163.7630 F       1  UNL1       -0.2038
     24 F         142.7482  138.4046  163.5095 F       1  UNL1       -0.2038
     25 C         142.7781  135.3897  154.8764 C.3     1  UNL1        0.1378
     26 C         143.2013  131.4208  156.9546 C.ar    1  UNL1        0.1387
     27 C         144.1117  132.5570  157.3152 C.ar    1  UNL1        0.0366
     28 C         143.9707  133.8800  156.6225 C.ar    1  UNL1        0.0007
     29 C         142.9192  134.0667  155.5691 C.ar    1  UNL1        0.0007
     30 C         142.0088  132.9305  155.2085 C.ar    1  UNL1        0.0007
     31 C         142.1499  131.6075  155.9012 C.ar    1  UNL1        0.0366
     32 C         144.6101  129.7643  158.3764 C.3     1  UNL1        0.2525
     33 O         143.3423  130.0977  157.6473 O.3     1  UNL1       -0.4714
@<TRIPOS>BOND
     1    32    33    1
     2    33    26    1
     3    26    27   ar
     4    27    28   ar
     5    28    29   ar
     6    29    25    1
     7    25     1    1
     8     1     2   ar
     9     2     3    2
    10     2     4   ar
    11     4     5   ar
    12     5     6   ar
    13     6     7   ar
    14     7     8   ar
    15     8     9   ar
    16     9    10   ar
    17    10    11   ar
    18    11    12   ar
    19    12    13   ar
    20    11    14    1
    21    14    15    1
    22    15    16   am
    23    16    17    2
    24    16    20    1
    25    20    21    1
    26    21    22    1
    27    22    23    1
    28    22    24    1
    29    15    18    1
    30    18    19    1
    31    29    30   ar
    32    30    31   ar
    33    31    26   ar
    34    13     1   ar
    35    22    20    1
    36     8     4   ar
    37    13     9   ar
    38    19    10    1
@<TRIPOS>MOLECULE
*****
 33 38 0 0 0
SMALL
GASTEIGER

@<TRIPOS>ATOM
      1 N         141.1389  137.9521  155.6409 N.ar    1  UNL1       -0.2702
      2 C         139.8590  137.9682  156.4231 C.ar    1  UNL1        0.3532
      3 O         138.7508  137.0218  156.0675 O.2     1  UNL1       -0.2443
      4 N         139.6875  138.9305  157.5608 N.ar    1  UNL1       -0.1606
      5 N         138.5481  139.1753  158.5052 N.ar    1  UNL1       -0.1372
      6 C         138.9522  140.2729  159.4443 C.ar    1  UNL1        0.2214
      7 N         140.3413  140.7065  159.0804 N.ar    1  UNL1       -0.2032
      8 C         140.7958  139.8768  157.9163 C.ar    1  UNL1        0.1717
      9 C         142.0756  139.8607  157.1341 C.ar    1  UNL1        0.0545
     10 C         143.3338  140.6688  157.2514 C.ar    1  UNL1       -0.0119
     11 C         144.2830  140.2060  156.1862 C.ar    1  UNL1        0.0248
     12 S         143.6114  139.1117  155.4105 S.2     1  UNL1       -0.0725
     13 C         142.2471  138.8983  155.9964 C.ar    1  UNL1        0.0965
     14 C         145.6362  140.8407  156.0601 C.3     1  UNL1        0.1263
     15 N         146.0403  141.9382  156.9992 N.am    1  UNL1       -0.2744
     16 C         147.3935  142.5729  156.8731 C.2     1  UNL1        0.2310
     17 O         147.7976  143.6705  157.8123 O.2     1  UNL1       -0.2747
     18 C         145.0911  142.4011  158.0645 C.3     1  UNL1        0.0984
     19 C         143.7379  141.7664  158.1905 C.3     1  UNL1        0.0482
     20 C         148.3427  142.1100  155.8079 C.3     1  UNL1        0.1431
     21 C         149.6575  141.5054  155.4129 C.3     1  UNL1        0.0817
     22 C         148.6720  141.9128  154.3578 C.3     1  UNL1        0.2727
     23 F         149.4357  141.5277  153.1256 F       1  UNL1       -0.2038
     24 F         147.4214  142.4539  153.7308 F       1  UNL1       -0.2038
     25 C         141.3105  136.9897  154.5031 C.3     1  UNL1        0.1378
     26 C         143.1230  132.9369  155.2381 C.ar    1  UNL1        0.1387
     27 C         142.4788  133.2423  153.9183 C.ar    1  UNL1        0.0366
     28 C         141.8746  134.5932  153.6733 C.ar    1  UNL1        0.0007
     29 C         141.9146  135.6388  154.7481 C.ar    1  UNL1        0.0007
     30 C         142.5588  135.3334  156.0678 C.ar    1  UNL1        0.0007
     31 C         143.1629  133.9825  156.3128 C.ar    1  UNL1        0.0366
     32 C         145.0199  131.4678  156.2346 C.3     1  UNL1        0.2525
     33 O         143.7271  131.5860  155.4831 O.3     1  UNL1       -0.4714
@<TRIPOS>BOND
     1    32    33    1
     2    33    26    1
     3    26    27   ar
     4    27    28   ar
     5    28    29   ar
     6    29    25    1
     7    25     1    1
     8     1     2   ar
     9     2     3    2
    10     2     4   ar
    11     4     5   ar
    12     5     6   ar
    13     6     7   ar
    14     7     8   ar
    15     8     9   ar
    16     9    10   ar
    17    10    11   ar
    18    11    12   ar
    19    12    13   ar
    20    11    14    1
    21    14    15    1
    22    15    16   am
    23    16    17    2
    24    16    20    1
    25    20    21    1
    26    21    22    1
    27    22    23    1
    28    22    24    1
    29    15    18    1
    30    18    19    1
    31    29    30   ar
    32    30    31   ar
    33    31    26   ar
    34    13     1   ar
    35    22    20    1
    36     8     4   ar
    37    13     9   ar
    38    19    10    1
