@<TRIPOS>MOLECULE
*****
 31 35 0 0 0
SMALL
GASTEIGER

@<TRIPOS>ATOM
      1 C         141.2126  144.3643  162.7644 C.3     1  UNL1        0.0166
      2 C         140.4155  144.0748  164.0017 C.3     1  UNL1        0.0035
      3 C         139.8893  143.6697  165.3467 C.3     1  UNL1        0.0227
      4 C         141.0185  143.0566  166.1207 C.3     1  UNL1        0.0870
      5 C         142.2425  143.0827  165.2541 C.3     1  UNL1        0.0227
      6 C         141.8699  143.7120  163.9444 C.3     1  UNL1        0.0035
      7 N         140.9378  142.5129  167.5164 N.ar    1  UNL1       -0.3109
      8 C         140.2279  143.1531  168.6724 C.ar    1  UNL1        0.1785
      9 N         140.4042  142.2693  169.8714 N.ar    1  UNL1       -0.2239
     10 C         141.2229  141.0828  169.4566 C.ar    1  UNL1        0.1011
     11 C         141.7107  139.8849  170.2161 C.ar    1  UNL1        0.0526
     12 C         142.5284  138.8374  169.5201 C.ar    1  UNL1        0.1690
     13 F         143.0162  137.6395  170.2796 F       1  UNL1       -0.2017
     14 C         142.8581  138.9880  168.0645 C.ar    1  UNL1        0.1689
     15 F         143.6757  137.9406  167.3685 F       1  UNL1       -0.2017
     16 C         142.3703  140.1860  167.3050 C.ar    1  UNL1        0.0507
     17 C         141.5527  141.2334  168.0010 C.ar    1  UNL1        0.0813
     18 C         142.3225  143.8725  161.0248 C.3     1  UNL1        0.0196
     19 C         141.2933  144.9081  161.3688 C.3     1  UNL1        0.0571
     20 C         140.2641  145.9437  161.7127 C.3     1  UNL1        0.0196
     21 N         141.3740  145.4518  159.9731 N.am    1  UNL1       -0.3040
     22 C         140.4100  144.9772  158.9264 C.2     1  UNL1        0.2458
     23 O         139.3654  143.9590  159.2753 O.2     1  UNL1       -0.2701
     24 H         142.0596  146.1202  159.7441 H       1  UNL1        0.1496
     25 C         140.4908  145.5210  157.5308 C.ar    1  UNL1        0.0534
     26 C         139.5553  146.6093  157.0946 C.ar    1  UNL1        0.0054
     27 C         139.6359  147.1531  155.6989 C.ar    1  UNL1        0.0115
     28 C         140.6521  146.6084  154.7394 C.ar    1  UNL1        0.0577
     29 CL        140.7328  147.1522  153.3438 Cl      1  UNL1       -0.0822
     30 C         141.5876  145.5201  155.1756 C.ar    1  UNL1        0.0115
     31 C         141.5070  144.9763  156.5713 C.ar    1  UNL1        0.0054
@<TRIPOS>BOND
     1    18    19    1
     2    19    20    1
     3    19    21    1
     4    21    22   am
     5    22    23    2
     6    22    25    1
     7    25    26   ar
     8    26    27   ar
     9    27    28   ar
    10    28    29    1
    11    28    30   ar
    12    30    31   ar
    13     1    19    1
    14     1     2    1
    15     2     3    1
    16     3     4    1
    17     4     7    1
    18     7     8   ar
    19     8     9   ar
    20     9    10   ar
    21    10    11   ar
    22    11    12   ar
    23    12    13    1
    24    12    14   ar
    25    14    15    1
    26    14    16   ar
    27    16    17   ar
    28     4     5    1
    29     6     5    1
    30    31    25   ar
    31     6     1    1
    32     6     2    1
    33    17     7   ar
    34    17    10   ar
    35    21    24    1
@<TRIPOS>MOLECULE
*****
 31 35 0 0 0
SMALL
GASTEIGER

@<TRIPOS>ATOM
      1 C         141.8830  143.5805  161.9109 C.3     1  UNL1        0.0166
      2 C         142.5144  143.3184  163.2461 C.3     1  UNL1        0.0035
      3 C         142.9829  142.7885  164.5689 C.3     1  UNL1        0.0227
      4 C         142.3359  141.4532  164.7888 C.3     1  UNL1        0.0870
      5 C         141.4675  141.1578  163.6020 C.3     1  UNL1        0.0227
      6 C         141.5778  142.3105  162.6485 C.3     1  UNL1        0.0035
      7 N         142.5242  140.5686  165.9855 N.ar    1  UNL1       -0.3109
      8 C         143.3326  139.3059  166.0300 C.ar    1  UNL1        0.1785
      9 N         143.2452  138.7484  167.4198 N.ar    1  UNL1       -0.2239
     10 C         142.3828  139.6666  168.2342 C.ar    1  UNL1        0.1011
     11 C         141.9458  139.6236  169.6685 C.ar    1  UNL1        0.0526
     12 C         141.0630  140.7056  170.2163 C.ar    1  UNL1        0.1690
     13 F         140.6260  140.6627  171.6505 F       1  UNL1       -0.2017
     14 C         140.6174  141.8306  169.3298 C.ar    1  UNL1        0.1689
     15 F         139.7348  142.9127  169.8776 F       1  UNL1       -0.2017
     16 C         141.0546  141.8736  167.8955 C.ar    1  UNL1        0.0507
     17 C         141.9372  140.7916  167.3478 C.ar    1  UNL1        0.0813
     18 C         140.7300  145.3110  161.4915 C.3     1  UNL1        0.0196
     19 C         141.6947  144.4651  160.7143 C.3     1  UNL1        0.0571
     20 C         142.6593  143.6193  159.9371 C.3     1  UNL1        0.0196
     21 N         141.5063  145.3499  159.5177 N.am    1  UNL1       -0.3040
     22 C         140.4703  145.0084  158.4882 C.2     1  UNL1        0.2458
     23 O         139.6226  143.7823  158.6551 O.2     1  UNL1       -0.2701
     24 H         142.0627  146.1546  159.4081 H       1  UNL1        0.1496
     25 C         140.2820  145.8931  157.2916 C.ar    1  UNL1        0.0534
     26 C         141.0978  145.6644  156.0538 C.ar    1  UNL1        0.0054
     27 C         140.9096  146.5491  154.8572 C.ar    1  UNL1        0.0115
     28 C         139.9053  147.6626  154.8983 C.ar    1  UNL1        0.0577
     29 CL        139.7170  148.5473  153.7018 Cl      1  UNL1       -0.0822
     30 C         139.0894  147.8913  156.1361 C.ar    1  UNL1        0.0115
     31 C         139.2777  147.0066  157.3327 C.ar    1  UNL1        0.0054
@<TRIPOS>BOND
     1    18    19    1
     2    19    20    1
     3    19    21    1
     4    21    22   am
     5    22    23    2
     6    22    25    1
     7    25    26   ar
     8    26    27   ar
     9    27    28   ar
    10    28    29    1
    11    28    30   ar
    12    30    31   ar
    13     1    19    1
    14     1     2    1
    15     2     3    1
    16     3     4    1
    17     4     7    1
    18     7     8   ar
    19     8     9   ar
    20     9    10   ar
    21    10    11   ar
    22    11    12   ar
    23    12    13    1
    24    12    14   ar
    25    14    15    1
    26    14    16   ar
    27    16    17   ar
    28     4     5    1
    29     6     5    1
    30    31    25   ar
    31     6     1    1
    32     6     2    1
    33    17     7   ar
    34    17    10   ar
    35    21    24    1
@<TRIPOS>MOLECULE
*****
 31 35 0 0 0
SMALL
GASTEIGER

@<TRIPOS>ATOM
      1 C         139.7948  143.3164  161.1402 C.3     1  UNL1        0.0166
      2 C         140.3157  144.4269  160.2766 C.3     1  UNL1        0.0035
      3 C         140.7074  145.3722  159.1798 C.3     1  UNL1        0.0227
      4 C         140.1979  144.8149  157.8836 C.3     1  UNL1        0.0870
      5 C         139.4914  143.5251  158.1794 C.3     1  UNL1        0.0227
      6 C         139.5642  143.2853  159.6584 C.3     1  UNL1        0.0035
      7 N         140.3655  145.4380  156.5295 N.ar    1  UNL1       -0.3109
      8 C         141.0655  144.8204  155.3554 C.ar    1  UNL1        0.1785
      9 N         140.9952  145.7888  154.2120 N.ar    1  UNL1       -0.2239
     10 C         140.2517  147.0048  154.6795 C.ar    1  UNL1        0.1011
     11 C         139.8787  148.2815  153.9860 C.ar    1  UNL1        0.0526
     12 C         139.1166  149.3414  154.7249 C.ar    1  UNL1        0.1690
     13 F         138.7437  150.6181  154.0314 F       1  UNL1       -0.2017
     14 C         138.7274  149.1246  156.1572 C.ar    1  UNL1        0.1689
     15 F         137.9653  150.1844  156.8960 F       1  UNL1       -0.2017
     16 C         139.1004  147.8478  156.8507 C.ar    1  UNL1        0.0507
     17 C         139.8625  146.7880  156.1118 C.ar    1  UNL1        0.0813
     18 C         138.4709  143.6078  162.7719 C.3     1  UNL1        0.0196
     19 C         139.6273  142.6935  162.4943 C.3     1  UNL1        0.0571
     20 C         140.7835  141.7791  162.2169 C.3     1  UNL1        0.0196
     21 N         139.4596  142.0706  163.8485 N.am    1  UNL1       -0.3040
     22 C         140.2748  142.5637  165.0071 C.2     1  UNL1        0.2458
     23 O         141.2576  143.6798  164.8115 O.2     1  UNL1       -0.2701
     24 H         138.8145  141.3380  163.9770 H       1  UNL1        0.1496
     25 C         140.1071  141.9408  166.3613 C.ar    1  UNL1        0.0534
     26 C         140.5448  142.6845  167.5883 C.ar    1  UNL1        0.0054
     27 C         140.3771  142.0616  168.9426 C.ar    1  UNL1        0.0115
     28 C         139.7719  140.6951  169.0698 C.ar    1  UNL1        0.0577
     29 CL        139.6042  140.0721  170.4240 Cl      1  UNL1       -0.0822
     30 C         139.3342  139.9514  167.8428 C.ar    1  UNL1        0.0115
     31 C         139.5019  140.5743  166.4885 C.ar    1  UNL1        0.0054
@<TRIPOS>BOND
     1    18    19    1
     2    19    20    1
     3    19    21    1
     4    21    22   am
     5    22    23    2
     6    22    25    1
     7    25    26   ar
     8    26    27   ar
     9    27    28   ar
    10    28    29    1
    11    28    30   ar
    12    30    31   ar
    13     1    19    1
    14     1     2    1
    15     2     3    1
    16     3     4    1
    17     4     7    1
    18     7     8   ar
    19     8     9   ar
    20     9    10   ar
    21    10    11   ar
    22    11    12   ar
    23    12    13    1
    24    12    14   ar
    25    14    15    1
    26    14    16   ar
    27    16    17   ar
    28     4     5    1
    29     6     5    1
    30    31    25   ar
    31     6     1    1
    32     6     2    1
    33    17     7   ar
    34    17    10   ar
    35    21    24    1
@<TRIPOS>MOLECULE
*****
 31 35 0 0 0
SMALL
GASTEIGER

@<TRIPOS>ATOM
      1 C         142.0230  138.8762  162.3503 C.3     1  UNL1        0.0166
      2 C         142.7804  138.0612  161.3441 C.3     1  UNL1        0.0035
      3 C         143.3128  137.3407  160.1411 C.3     1  UNL1        0.0227
      4 C         142.3951  137.6222  158.9884 C.3     1  UNL1        0.0870
      5 C         141.2955  138.5166  159.4791 C.3     1  UNL1        0.0227
      6 C         141.5336  138.7880  160.9351 C.3     1  UNL1        0.0035
      7 N         142.5499  137.1007  157.5905 N.ar    1  UNL1       -0.3109
      8 C         142.2439  137.8536  156.3297 C.ar    1  UNL1        0.1785
      9 N         142.5427  136.9530  155.1680 N.ar    1  UNL1       -0.2239
     10 C         143.0334  135.6435  155.7108 C.ar    1  UNL1        0.1011
     11 C         143.4767  134.3799  155.0352 C.ar    1  UNL1        0.0526
     12 C         143.9245  133.2074  155.8567 C.ar    1  UNL1        0.1690
     13 F         144.3679  131.9437  155.1811 F       1  UNL1       -0.2017
     14 C         143.9290  133.2987  157.3539 C.ar    1  UNL1        0.1689
     15 F         144.3767  132.1264  158.1755 F       1  UNL1       -0.2017
     16 C         143.4856  134.5625  158.0296 C.ar    1  UNL1        0.0507
     17 C         143.0378  135.7348  157.2080 C.ar    1  UNL1        0.0813
     18 C         142.3440  140.7469  163.2975 C.3     1  UNL1        0.0196
     19 C         141.8683  139.3975  163.7481 C.3     1  UNL1        0.0571
     20 C         141.3926  138.0483  164.1989 C.3     1  UNL1        0.0196
     21 N         141.7137  139.9190  165.1461 N.am    1  UNL1       -0.3040
     22 C         140.4302  140.5725  165.5651 C.2     1  UNL1        0.2458
     23 O         139.3013  140.7045  164.5863 O.2     1  UNL1       -0.2701
     24 H         142.4546  139.8324  165.7885 H       1  UNL1        0.1496
     25 C         140.2756  141.0940  166.9630 C.ar    1  UNL1        0.0534
     26 C         140.6473  142.5123  167.2798 C.ar    1  UNL1        0.0054
     27 C         140.4927  143.0339  168.6777 C.ar    1  UNL1        0.0115
     28 C         139.9664  142.1371  169.7588 C.ar    1  UNL1        0.0577
     29 CL        139.8118  142.6586  171.1567 Cl      1  UNL1       -0.0822
     30 C         139.5947  140.7189  169.4420 C.ar    1  UNL1        0.0115
     31 C         139.7493  140.1973  168.0441 C.ar    1  UNL1        0.0054
@<TRIPOS>BOND
     1    18    19    1
     2    19    20    1
     3    19    21    1
     4    21    22   am
     5    22    23    2
     6    22    25    1
     7    25    26   ar
     8    26    27   ar
     9    27    28   ar
    10    28    29    1
    11    28    30   ar
    12    30    31   ar
    13     1    19    1
    14     1     2    1
    15     2     3    1
    16     3     4    1
    17     4     7    1
    18     7     8   ar
    19     8     9   ar
    20     9    10   ar
    21    10    11   ar
    22    11    12   ar
    23    12    13    1
    24    12    14   ar
    25    14    15    1
    26    14    16   ar
    27    16    17   ar
    28     4     5    1
    29     6     5    1
    30    31    25   ar
    31     6     1    1
    32     6     2    1
    33    17     7   ar
    34    17    10   ar
    35    21    24    1
@<TRIPOS>MOLECULE
*****
 31 35 0 0 0
SMALL
GASTEIGER

@<TRIPOS>ATOM
      1 C         142.1833  139.6246  161.4990 C.3     1  UNL1        0.0166
      2 C         141.6442  138.8370  162.6563 C.3     1  UNL1        0.0035
      3 C         141.0081  138.3294  163.9163 C.3     1  UNL1        0.0227
      4 C         140.4309  139.5037  164.6498 C.3     1  UNL1        0.0870
      5 C         140.7102  140.7370  163.8431 C.3     1  UNL1        0.0227
      6 C         141.4602  140.3250  162.6110 C.3     1  UNL1        0.0035
      7 N         139.7022  139.4534  165.9599 N.ar    1  UNL1       -0.3109
      8 C         138.4842  138.6310  166.2604 C.ar    1  UNL1        0.1785
      9 N         138.0929  138.8861  167.6858 N.ar    1  UNL1       -0.2239
     10 C         139.0689  139.8661  168.2662 C.ar    1  UNL1        0.1011
     11 C         139.1804  140.4845  169.6282 C.ar    1  UNL1        0.0526
     12 C         140.2867  141.4536  169.9236 C.ar    1  UNL1        0.1690
     13 F         140.3982  142.0720  171.2856 F       1  UNL1       -0.2017
     14 C         141.2813  141.8043  168.8570 C.ar    1  UNL1        0.1689
     15 F         142.3874  142.7733  169.1523 F       1  UNL1       -0.2017
     16 C         141.1697  141.1858  167.4949 C.ar    1  UNL1        0.0507
     17 C         140.0635  140.2168  167.1996 C.ar    1  UNL1        0.0813
     18 C         141.6424  140.0763  159.4982 C.3     1  UNL1        0.0196
     19 C         142.9120  139.6747  160.1889 C.3     1  UNL1        0.0571
     20 C         144.1815  139.2731  160.8795 C.3     1  UNL1        0.0196
     21 N         143.6406  139.7249  158.8787 N.am    1  UNL1       -0.3040
     22 C         144.2591  141.0097  158.4132 C.2     1  UNL1        0.2458
     23 O         144.1490  142.2444  159.2578 O.2     1  UNL1       -0.2701
     24 H         143.7128  138.9146  158.3243 H       1  UNL1        0.1496
     25 C         144.9877  141.0599  157.1030 C.ar    1  UNL1        0.0534
     26 C         144.6428  140.0863  156.0153 C.ar    1  UNL1        0.0054
     27 C         145.3714  140.1364  154.7050 C.ar    1  UNL1        0.0115
     28 C         146.4448  141.1602  154.4825 C.ar    1  UNL1        0.0577
     29 CL        147.1735  141.2104  153.1723 Cl      1  UNL1       -0.0822
     30 C         146.7897  142.1338  155.5702 C.ar    1  UNL1        0.0115
     31 C         146.0611  142.0837  156.8805 C.ar    1  UNL1        0.0054
@<TRIPOS>BOND
     1    18    19    1
     2    19    20    1
     3    19    21    1
     4    21    22   am
     5    22    23    2
     6    22    25    1
     7    25    26   ar
     8    26    27   ar
     9    27    28   ar
    10    28    29    1
    11    28    30   ar
    12    30    31   ar
    13     1    19    1
    14     1     2    1
    15     2     3    1
    16     3     4    1
    17     4     7    1
    18     7     8   ar
    19     8     9   ar
    20     9    10   ar
    21    10    11   ar
    22    11    12   ar
    23    12    13    1
    24    12    14   ar
    25    14    15    1
    26    14    16   ar
    27    16    17   ar
    28     4     5    1
    29     6     5    1
    30    31    25   ar
    31     6     1    1
    32     6     2    1
    33    17     7   ar
    34    17    10   ar
    35    21    24    1
@<TRIPOS>MOLECULE
*****
 31 35 0 0 0
SMALL
GASTEIGER

@<TRIPOS>ATOM
      1 C         141.1120  138.8084  158.7880 C.3     1  UNL1        0.0166
      2 C         140.5841  138.0587  157.6007 C.3     1  UNL1        0.0035
      3 C         140.3456  137.1887  156.4023 C.3     1  UNL1        0.0227
      4 C         141.6192  136.4559  156.1007 C.3     1  UNL1        0.0870
      5 C         142.6449  136.8730  157.1127 C.3     1  UNL1        0.0227
      6 C         142.0051  137.8637  158.0398 C.3     1  UNL1        0.0035
      7 N         141.8301  135.4776  154.9833 N.ar    1  UNL1       -0.3109
      8 C         141.7280  135.7783  153.5173 C.ar    1  UNL1        0.1785
      9 N         142.0150  134.5134  152.7637 N.ar    1  UNL1       -0.2239
     10 C         142.2944  133.4311  153.7640 C.ar    1  UNL1        0.1011
     11 C         142.6381  131.9800  153.6029 C.ar    1  UNL1        0.0526
     12 C         142.8677  131.1247  154.8136 C.ar    1  UNL1        0.1690
     13 F         143.2114  129.6735  154.6525 F       1  UNL1       -0.2017
     14 C         142.7534  131.7206  156.1854 C.ar    1  UNL1        0.1689
     15 F         142.9829  130.8654  157.3961 F       1  UNL1       -0.2017
     16 C         142.4097  133.1718  156.3465 C.ar    1  UNL1        0.0507
     17 C         142.1802  134.0270  155.1358 C.ar    1  UNL1        0.0813
     18 C         140.7328  138.6495  160.8690 C.3     1  UNL1        0.0196
     19 C         140.9010  139.7866  159.9053 C.3     1  UNL1        0.0571
     20 C         141.0692  140.9237  158.9417 C.3     1  UNL1        0.0196
     21 N         140.6900  140.7647  161.0228 N.am    1  UNL1       -0.3040
     22 C         139.3075  141.2509  161.3429 C.2     1  UNL1        0.2458
     23 O         138.1361  140.7589  160.5456 O.2     1  UNL1       -0.2701
     24 H         141.4588  141.0876  161.5461 H       1  UNL1        0.1496
     25 C         139.0965  142.2290  162.4604 C.ar    1  UNL1        0.0534
     26 C         137.9437  143.1874  162.4105 C.ar    1  UNL1        0.0054
     27 C         137.7326  144.1656  163.5279 C.ar    1  UNL1        0.0115
     28 C         138.6743  144.1854  164.6953 C.ar    1  UNL1        0.0577
     29 CL        138.4633  145.1635  165.8127 Cl      1  UNL1       -0.0822
     30 C         139.8271  143.2270  164.7451 C.ar    1  UNL1        0.0115
     31 C         140.0382  142.2488  163.6277 C.ar    1  UNL1        0.0054
@<TRIPOS>BOND
     1    18    19    1
     2    19    20    1
     3    19    21    1
     4    21    22   am
     5    22    23    2
     6    22    25    1
     7    25    26   ar
     8    26    27   ar
     9    27    28   ar
    10    28    29    1
    11    28    30   ar
    12    30    31   ar
    13     1    19    1
    14     1     2    1
    15     2     3    1
    16     3     4    1
    17     4     7    1
    18     7     8   ar
    19     8     9   ar
    20     9    10   ar
    21    10    11   ar
    22    11    12   ar
    23    12    13    1
    24    12    14   ar
    25    14    15    1
    26    14    16   ar
    27    16    17   ar
    28     4     5    1
    29     6     5    1
    30    31    25   ar
    31     6     1    1
    32     6     2    1
    33    17     7   ar
    34    17    10   ar
    35    21    24    1
@<TRIPOS>MOLECULE
*****
 31 35 0 0 0
SMALL
GASTEIGER

@<TRIPOS>ATOM
      1 C         139.8439  142.1981  161.2961 C.3     1  UNL1        0.0166
      2 C         140.1783  141.2004  162.3652 C.3     1  UNL1        0.0035
      3 C         140.2920  140.3536  163.5981 C.3     1  UNL1        0.0227
      4 C         139.3055  140.8664  164.6051 C.3     1  UNL1        0.0870
      5 C         138.5822  142.0300  163.9946 C.3     1  UNL1        0.0227
      6 C         139.1217  142.2365  162.6102 C.3     1  UNL1        0.0035
      7 N         139.0817  140.3126  165.9810 N.ar    1  UNL1       -0.3109
      8 C         138.1416  139.2008  166.3418 C.ar    1  UNL1        0.1785
      9 N         138.2376  138.9745  167.8215 N.ar    1  UNL1       -0.2239
     10 C         139.2369  139.9465  168.3753 C.ar    1  UNL1        0.1011
     11 C         139.7392  140.1853  169.7683 C.ar    1  UNL1        0.0526
     12 C         140.7633  141.2513  170.0239 C.ar    1  UNL1        0.1690
     13 F         141.2656  141.4901  171.4169 F       1  UNL1       -0.2017
     14 C         141.2849  142.0783  168.8864 C.ar    1  UNL1        0.1689
     15 F         142.3089  143.1441  169.1419 F       1  UNL1       -0.2017
     16 C         140.7826  141.8393  167.4933 C.ar    1  UNL1        0.0507
     17 C         139.7586  140.7735  167.2378 C.ar    1  UNL1        0.0813
     18 C         141.5180  142.9618  160.2407 C.3     1  UNL1        0.0196
     19 C         140.0678  142.7517  159.9201 C.3     1  UNL1        0.0571
     20 C         138.6176  142.5417  159.5995 C.3     1  UNL1        0.0196
     21 N         140.2918  143.3054  158.5442 N.am    1  UNL1       -0.3040
     22 C         140.1710  144.7805  158.3005 C.2     1  UNL1        0.2458
     23 O         139.8261  145.7020  159.4326 O.2     1  UNL1       -0.2701
     24 H         140.5182  142.7007  157.8011 H       1  UNL1        0.1496
     25 C         140.3951  145.3342  156.9245 C.ar    1  UNL1        0.0534
     26 C         139.7443  146.6237  156.5198 C.ar    1  UNL1        0.0054
     27 C         139.9683  147.1775  155.1439 C.ar    1  UNL1        0.0115
     28 C         140.8431  146.4417  154.1726 C.ar    1  UNL1        0.0577
     29 CL        141.0672  146.9954  152.7967 Cl      1  UNL1       -0.0822
     30 C         141.4939  145.1523  154.5773 C.ar    1  UNL1        0.0115
     31 C         141.2699  144.5985  155.9533 C.ar    1  UNL1        0.0054
@<TRIPOS>BOND
     1    18    19    1
     2    19    20    1
     3    19    21    1
     4    21    22   am
     5    22    23    2
     6    22    25    1
     7    25    26   ar
     8    26    27   ar
     9    27    28   ar
    10    28    29    1
    11    28    30   ar
    12    30    31   ar
    13     1    19    1
    14     1     2    1
    15     2     3    1
    16     3     4    1
    17     4     7    1
    18     7     8   ar
    19     8     9   ar
    20     9    10   ar
    21    10    11   ar
    22    11    12   ar
    23    12    13    1
    24    12    14   ar
    25    14    15    1
    26    14    16   ar
    27    16    17   ar
    28     4     5    1
    29     6     5    1
    30    31    25   ar
    31     6     1    1
    32     6     2    1
    33    17     7   ar
    34    17    10   ar
    35    21    24    1
@<TRIPOS>MOLECULE
*****
 31 35 0 0 0
SMALL
GASTEIGER

@<TRIPOS>ATOM
      1 C         142.7149  137.3058  156.6604 C.3     1  UNL1        0.0166
      2 C         142.6010  138.0101  157.9800 C.3     1  UNL1        0.0035
      3 C         142.5927  138.9622  159.1390 C.3     1  UNL1        0.0227
      4 C         143.0743  140.2951  158.6474 C.3     1  UNL1        0.0870
      5 C         143.3801  140.1667  157.1845 C.3     1  UNL1        0.0227
      6 C         143.0876  138.7545  156.7720 C.3     1  UNL1        0.0035
      7 N         143.2237  141.5381  159.4736 N.ar    1  UNL1       -0.3109
      8 C         142.7971  142.9193  159.0734 C.ar    1  UNL1        0.1785
      9 N         143.1357  143.8529  160.1976 N.ar    1  UNL1       -0.2239
     10 C         143.7716  143.0486  161.2925 C.ar    1  UNL1        0.1011
     11 C         144.3081  143.4342  162.6392 C.ar    1  UNL1        0.0526
     12 C         144.8990  142.3890  163.5384 C.ar    1  UNL1        0.1690
     13 F         145.4355  142.7746  164.8851 F       1  UNL1       -0.2017
     14 C         144.9533  140.9584  163.0910 C.ar    1  UNL1        0.1689
     15 F         145.5442  139.9132  163.9901 F       1  UNL1       -0.2017
     16 C         144.4168  140.5728  161.7442 C.ar    1  UNL1        0.0507
     17 C         143.8259  141.6180  160.8451 C.ar    1  UNL1        0.0813
     18 C         144.0571  135.9671  155.7084 C.3     1  UNL1        0.0196
     19 C         142.5654  136.0628  155.8343 C.3     1  UNL1        0.0571
     20 C         141.0737  136.1584  155.9601 C.3     1  UNL1        0.0196
     21 N         142.4160  134.8198  155.0082 N.am    1  UNL1       -0.3040
     22 C         142.4488  133.4727  155.6673 C.2     1  UNL1        0.2458
     23 O         142.6309  133.3687  157.1525 O.2     1  UNL1       -0.2701
     24 H         142.2965  134.8880  154.0333 H       1  UNL1        0.1496
     25 C         142.2995  132.2297  154.8411 C.ar    1  UNL1        0.0534
     26 C         140.9349  131.6689  154.5698 C.ar    1  UNL1        0.0054
     27 C         140.7855  130.4258  153.7436 C.ar    1  UNL1        0.0115
     28 C         142.0007  129.7435  153.1888 C.ar    1  UNL1        0.0577
     29 CL        141.8513  128.5005  152.3627 Cl      1  UNL1       -0.0822
     30 C         143.3652  130.3043  153.4602 C.ar    1  UNL1        0.0115
     31 C         143.5146  131.5473  154.2863 C.ar    1  UNL1        0.0054
@<TRIPOS>BOND
     1    18    19    1
     2    19    20    1
     3    19    21    1
     4    21    22   am
     5    22    23    2
     6    22    25    1
     7    25    26   ar
     8    26    27   ar
     9    27    28   ar
    10    28    29    1
    11    28    30   ar
    12    30    31   ar
    13     1    19    1
    14     1     2    1
    15     2     3    1
    16     3     4    1
    17     4     7    1
    18     7     8   ar
    19     8     9   ar
    20     9    10   ar
    21    10    11   ar
    22    11    12   ar
    23    12    13    1
    24    12    14   ar
    25    14    15    1
    26    14    16   ar
    27    16    17   ar
    28     4     5    1
    29     6     5    1
    30    31    25   ar
    31     6     1    1
    32     6     2    1
    33    17     7   ar
    34    17    10   ar
    35    21    24    1
@<TRIPOS>MOLECULE
*****
 31 35 0 0 0
SMALL
GASTEIGER

@<TRIPOS>ATOM
      1 C         140.4789  138.5848  159.8729 C.3     1  UNL1        0.0166
      2 C         141.4524  138.1352  158.8239 C.3     1  UNL1        0.0035
      3 C         142.1723  137.6761  157.5906 C.3     1  UNL1        0.0227
      4 C         141.1630  137.5364  156.4897 C.3     1  UNL1        0.0870
      5 C         139.8193  137.9091  157.0426 C.3     1  UNL1        0.0227
      6 C         139.9982  138.2792  158.4853 C.3     1  UNL1        0.0035
      7 N         141.4475  137.1004  155.0830 N.ar    1  UNL1       -0.3109
      8 C         141.7395  138.0040  153.9219 C.ar    1  UNL1        0.1785
      9 N         141.9624  137.1463  152.7117 N.ar    1  UNL1       -0.2239
     10 C         141.8081  135.7126  153.1248 C.ar    1  UNL1        0.1011
     11 C         141.9163  134.4293  152.3558 C.ar    1  UNL1        0.0526
     12 C         141.7062  133.1175  153.0524 C.ar    1  UNL1        0.1690
     13 F         141.8144  131.8342  152.2834 F       1  UNL1       -0.2017
     14 C         141.3880  133.0891  154.5180 C.ar    1  UNL1        0.1689
     15 F         141.1780  131.7774  155.2146 F       1  UNL1       -0.2017
     16 C         141.2798  134.3725  155.2870 C.ar    1  UNL1        0.0507
     17 C         141.4899  135.6842  154.5904 C.ar    1  UNL1        0.0813
     18 C         138.8528  138.3532  161.2153 C.3     1  UNL1        0.0196
     19 C         140.1945  139.0207  161.2796 C.3     1  UNL1        0.0571
     20 C         141.5362  139.6883  161.3441 C.3     1  UNL1        0.0196
     21 N         139.9100  139.4566  162.6864 N.am    1  UNL1       -0.3040
     22 C         140.2295  138.5443  163.8334 C.2     1  UNL1        0.2458
     23 O         140.8333  137.1960  163.5737 O.2     1  UNL1       -0.2701
     24 H         139.5137  140.3416  162.8570 H       1  UNL1        0.1496
     25 C         139.9450  138.9802  165.2402 C.ar    1  UNL1        0.0534
     26 C         138.5887  138.7483  165.8375 C.ar    1  UNL1        0.0054
     27 C         138.3042  139.1841  167.2443 C.ar    1  UNL1        0.0115
     28 C         139.3759  139.8520  168.0538 C.ar    1  UNL1        0.0577
     29 CL        139.0915  140.2879  169.4606 Cl      1  UNL1       -0.0822
     30 C         140.7322  140.0839  167.4565 C.ar    1  UNL1        0.0115
     31 C         141.0167  139.6480  166.0497 C.ar    1  UNL1        0.0054
@<TRIPOS>BOND
     1    18    19    1
     2    19    20    1
     3    19    21    1
     4    21    22   am
     5    22    23    2
     6    22    25    1
     7    25    26   ar
     8    26    27   ar
     9    27    28   ar
    10    28    29    1
    11    28    30   ar
    12    30    31   ar
    13     1    19    1
    14     1     2    1
    15     2     3    1
    16     3     4    1
    17     4     7    1
    18     7     8   ar
    19     8     9   ar
    20     9    10   ar
    21    10    11   ar
    22    11    12   ar
    23    12    13    1
    24    12    14   ar
    25    14    15    1
    26    14    16   ar
    27    16    17   ar
    28     4     5    1
    29     6     5    1
    30    31    25   ar
    31     6     1    1
    32     6     2    1
    33    17     7   ar
    34    17    10   ar
    35    21    24    1
