@<TRIPOS>MOLECULE
*****
 30 33 0 0 0
SMALL
GASTEIGER

@<TRIPOS>ATOM
      1 C         140.2298  142.4103  166.5883 C.ar    1  UNL1        0.0860
      2 C         140.0727  143.4189  165.4891 C.ar    1  UNL1        0.0250
      3 C         139.1294  142.8510  164.4704 C.ar    1  UNL1        0.0668
      4 C         138.6033  143.3963  163.1758 C.ar    1  UNL1        0.1333
      5 N         137.6513  142.5821  162.3508 N.ar    1  UNL1       -0.2108
      6 C         137.2255  141.2226  162.8202 C.ar    1  UNL1        0.1773
      7 N         137.7517  140.6774  164.1148 N.ar    1  UNL1       -0.3214
      8 C         138.7036  141.4916  164.9398 C.ar    1  UNL1        0.1443
      9 N         139.3837  141.2192  166.2488 N.ar    1  UNL1       -0.2283
     10 H         137.4722  139.7851  164.4229 H       1  UNL1        0.1689
     11 C         142.4776  142.0130  167.8291 C.ar    1  UNL1        0.1401
     12 C         143.3311  142.1682  169.0528 C.ar    1  UNL1        0.0369
     13 C         142.7901  142.8761  170.2595 C.ar    1  UNL1        0.0031
     14 C         141.3957  143.4288  170.2425 C.ar    1  UNL1        0.0002
     15 C         140.5423  143.2735  169.0188 C.ar    1  UNL1        0.0045
     16 C         141.0833  142.5656  167.8121 C.ar    1  UNL1        0.0517
     17 C         142.9033  139.8134  166.5133 C.3     1  UNL1        0.2525
     18 O         143.0186  141.3050  166.6223 O.3     1  UNL1       -0.4714
     19 N         139.0291  144.7559  162.7063 N.pl3   1  UNL1       -0.3139
     20 H         138.4581  145.5384  162.8818 H       1  UNL1        0.1485
     21 CA        140.3249  144.9230  161.9695 C.3     1  UNL1        0.1227
     22 C         141.6083  144.4632  162.5953 C.ar    1  UNL1       -0.0021
     23 C         142.1446  143.0963  162.2887 C.ar    1  UNL1       -0.0026
     24 C         143.4279  142.6365  162.9145 C.ar    1  UNL1       -0.0003
     25 C         144.1749  143.5435  163.8468 C.ar    1  UNL1       -0.0000
     26 C         143.6386  144.9104  164.1534 C.ar    1  UNL1       -0.0003
     27 C         142.3553  145.3702  163.5276 C.ar    1  UNL1       -0.0026
     28 C         140.3374  145.5500  160.6068 C.3     1  UNL1        0.1611
     29 O         141.6200  145.6394  159.8341 O.3     1  UNL1       -0.3799
     30 H         142.2328  146.2353  160.2926 H       1  UNL1        0.2105
@<TRIPOS>BOND
     1    17    18    1
     2    18    11    1
     3    11    12   ar
     4    12    13   ar
     5    13    14   ar
     6    14    15   ar
     7    15    16   ar
     8    16     1    1
     9     1     2   ar
    10     2     3   ar
    11     3     4   ar
    12     4    19    1
    13    19    21    1
    14    21    28    1
    15    28    29    1
    16    21    22    1
    17    22    23   ar
    18    23    24   ar
    19    24    25   ar
    20    25    26   ar
    21    26    27   ar
    22     4     5   ar
    23     5     6   ar
    24     6     7   ar
    25     7     8   ar
    26     8     9   ar
    27    16    11   ar
    28     9     1   ar
    29     8     3    1
    30    27    22   ar
    31    19    20    1
    32    29    30    1
    33     7    10    1
@<TRIPOS>MOLECULE
*****
 30 33 0 0 0
SMALL
GASTEIGER

@<TRIPOS>ATOM
      1 C         139.5650  140.0986  165.8420 C.ar    1  UNL1        0.0860
      2 C         140.6089  139.3177  165.1002 C.ar    1  UNL1        0.0250
      3 C         140.0164  138.8749  163.7952 C.ar    1  UNL1        0.0668
      4 C         140.5787  138.0753  162.6575 C.ar    1  UNL1        0.1333
      5 N         139.7310  137.7829  161.4551 N.ar    1  UNL1       -0.2108
      6 C         138.3208  138.2902  161.3904 C.ar    1  UNL1        0.1773
      7 N         137.7585  139.0898  162.5282 N.ar    1  UNL1       -0.3214
      8 C         138.6063  139.3821  163.7306 C.ar    1  UNL1        0.1443
      9 N         138.3273  140.1384  164.9955 N.ar    1  UNL1       -0.2283
     10 H         136.8330  139.4227  162.4857 H       1  UNL1        0.1689
     11 C         140.3715  142.0792  167.3175 C.ar    1  UNL1        0.1401
     12 C         140.5362  142.7097  168.6685 C.ar    1  UNL1        0.0369
     13 C         140.0594  141.9900  169.8951 C.ar    1  UNL1        0.0031
     14 C         139.4177  140.6399  169.7707 C.ar    1  UNL1        0.0002
     15 C         139.2529  140.0095  168.4197 C.ar    1  UNL1        0.0045
     16 C         139.7298  140.7291  167.1931 C.ar    1  UNL1        0.0517
     17 C         139.9098  143.6884  165.3307 C.3     1  UNL1        0.2525
     18 O         140.8483  142.7988  166.0908 O.3     1  UNL1       -0.4714
     19 N         141.9889  137.5680  162.7222 N.pl3   1  UNL1       -0.3139
     20 H         142.2190  136.8296  163.3314 H       1  UNL1        0.1485
     21 CA        143.0485  138.1858  161.8587 C.3     1  UNL1        0.1227
     22 C         143.8787  139.3187  162.3852 C.ar    1  UNL1       -0.0021
     23 C         144.1329  140.5235  161.5285 C.ar    1  UNL1       -0.0026
     24 C         144.9631  141.6565  162.0549 C.ar    1  UNL1       -0.0003
     25 C         145.5391  141.5847  163.4380 C.ar    1  UNL1       -0.0000
     26 C         145.2849  140.3800  164.2947 C.ar    1  UNL1       -0.0003
     27 C         144.4547  139.2469  163.7683 C.ar    1  UNL1       -0.0026
     28 C         143.2779  137.6705  160.4688 C.3     1  UNL1        0.1611
     29 O         142.2592  137.9240  159.3973 O.3     1  UNL1       -0.3799
     30 H         141.4396  137.4518  159.6123 H       1  UNL1        0.2105
@<TRIPOS>BOND
     1    17    18    1
     2    18    11    1
     3    11    12   ar
     4    12    13   ar
     5    13    14   ar
     6    14    15   ar
     7    15    16   ar
     8    16     1    1
     9     1     2   ar
    10     2     3   ar
    11     3     4   ar
    12     4    19    1
    13    19    21    1
    14    21    28    1
    15    28    29    1
    16    21    22    1
    17    22    23   ar
    18    23    24   ar
    19    24    25   ar
    20    25    26   ar
    21    26    27   ar
    22     4     5   ar
    23     5     6   ar
    24     6     7   ar
    25     7     8   ar
    26     8     9   ar
    27    16    11   ar
    28     9     1   ar
    29     8     3    1
    30    27    22   ar
    31    19    20    1
    32    29    30    1
    33     7    10    1
@<TRIPOS>MOLECULE
*****
 30 33 0 0 0
SMALL
GASTEIGER

@<TRIPOS>ATOM
      1 C         143.0523  141.9073  165.8981 C.ar    1  UNL1        0.0860
      2 C         142.5810  143.0831  165.0948 C.ar    1  UNL1        0.0250
      3 C         143.2548  143.0296  163.7557 C.ar    1  UNL1        0.0668
      4 C         143.1746  143.9254  162.5552 C.ar    1  UNL1        0.1333
      5 N         143.9822  143.6125  161.3306 N.ar    1  UNL1       -0.2108
      6 C         144.8699  142.4037  161.3063 C.ar    1  UNL1        0.1773
      7 N         144.9501  141.5078  162.5068 N.ar    1  UNL1       -0.3214
      8 C         144.1425  141.8208  163.7314 C.ar    1  UNL1        0.1443
      9 N         144.0174  141.1272  165.0555 N.ar    1  UNL1       -0.2283
     10 H         145.5328  140.7144  162.4908 H       1  UNL1        0.1689
     11 C         141.5109  140.6025  167.5326 C.ar    1  UNL1        0.1401
     12 C         141.0908  140.2660  168.9327 C.ar    1  UNL1        0.0369
     13 C         141.7923  140.8976  170.0984 C.ar    1  UNL1        0.0031
     14 C         142.9137  141.8658  169.8641 C.ar    1  UNL1        0.0002
     15 C         143.3337  142.2024  168.4640 C.ar    1  UNL1        0.0045
     16 C         142.6323  141.5708  167.2983 C.ar    1  UNL1        0.0517
     17 C         139.5704  140.6027  165.8050 C.3     1  UNL1        0.2525
     18 O         140.8094  139.9709  166.3668 O.3     1  UNL1       -0.4714
     19 N         142.2868  145.1343  162.5795 N.pl3   1  UNL1       -0.3139
     20 H         142.6149  145.9783  162.9659 H       1  UNL1        0.1485
     21 CA        140.8992  145.0572  162.0151 C.3     1  UNL1        0.1227
     22 C         139.7691  144.5619  162.8679 C.ar    1  UNL1       -0.0021
     23 C         139.6245  145.0500  164.2790 C.ar    1  UNL1       -0.0026
     24 C         138.4943  144.5546  165.1318 C.ar    1  UNL1       -0.0003
     25 C         137.5088  143.5712  164.5737 C.ar    1  UNL1       -0.0000
     26 C         137.6534  143.0830  163.1628 C.ar    1  UNL1       -0.0003
     27 C         138.7835  143.5784  162.3099 C.ar    1  UNL1       -0.0026
     28 C         140.6417  145.4755  160.5977 C.3     1  UNL1        0.1611
     29 O         141.7798  145.5699  159.6251 O.3     1  UNL1       -0.3799
     30 H         142.3800  146.2814  159.8979 H       1  UNL1        0.2105
@<TRIPOS>BOND
     1    17    18    1
     2    18    11    1
     3    11    12   ar
     4    12    13   ar
     5    13    14   ar
     6    14    15   ar
     7    15    16   ar
     8    16     1    1
     9     1     2   ar
    10     2     3   ar
    11     3     4   ar
    12     4    19    1
    13    19    21    1
    14    21    28    1
    15    28    29    1
    16    21    22    1
    17    22    23   ar
    18    23    24   ar
    19    24    25   ar
    20    25    26   ar
    21    26    27   ar
    22     4     5   ar
    23     5     6   ar
    24     6     7   ar
    25     7     8   ar
    26     8     9   ar
    27    16    11   ar
    28     9     1   ar
    29     8     3    1
    30    27    22   ar
    31    19    20    1
    32    29    30    1
    33     7    10    1
@<TRIPOS>MOLECULE
*****
 30 33 0 0 0
SMALL
GASTEIGER

@<TRIPOS>ATOM
      1 C         143.0927  142.1733  166.1933 C.ar    1  UNL1        0.0860
      2 C         143.3317  140.8914  165.4520 C.ar    1  UNL1        0.0250
      3 C         143.9199  141.2321  164.1148 C.ar    1  UNL1        0.0668
      4 C         144.3582  140.3761  162.9636 C.ar    1  UNL1        0.1333
      5 N         144.9210  141.0124  161.7274 N.ar    1  UNL1       -0.2108
      6 C         145.0456  142.5048  161.6424 C.ar    1  UNL1        0.1773
      7 N         144.6073  143.3608  162.7936 N.ar    1  UNL1       -0.3214
      8 C         144.0445  142.7244  164.0297 C.ar    1  UNL1        0.1443
      9 N         143.5333  143.3062  165.3144 N.ar    1  UNL1       -0.2283
     10 H         144.6891  144.3403  162.7377 H       1  UNL1        0.1689
     11 C         141.0287  142.3870  167.7568 C.ar    1  UNL1        0.1401
     12 C         140.4507  142.5138  169.1350 C.ar    1  UNL1        0.0369
     13 C         141.3586  142.5538  170.3283 C.ar    1  UNL1        0.0031
     14 C         142.8447  142.4669  170.1433 C.ar    1  UNL1        0.0002
     15 C         143.4227  142.3400  168.7650 C.ar    1  UNL1        0.0045
     16 C         142.5147  142.3001  167.5717 C.ar    1  UNL1        0.0517
     17 C         139.5005  141.0499  166.1360 C.3     1  UNL1        0.2525
     18 O         140.1207  142.3471  166.5634 O.3     1  UNL1       -0.4714
     19 N         144.2336  138.8836  163.0487 N.pl3   1  UNL1       -0.3139
     20 H         144.8439  138.3708  163.6264 H       1  UNL1        0.1485
     21 CA        143.1790  138.1725  162.2535 C.3     1  UNL1        0.1227
     22 C         141.8048  137.9885  162.8257 C.ar    1  UNL1       -0.0021
     23 C         140.6054  138.0331  161.9259 C.ar    1  UNL1       -0.0026
     24 C         139.2312  137.8490  162.4982 C.ar    1  UNL1       -0.0003
     25 C         139.0562  137.6203  163.9703 C.ar    1  UNL1       -0.0000
     26 C         140.2555  137.5756  164.8701 C.ar    1  UNL1       -0.0003
     27 C         141.6298  137.7597  164.2978 C.ar    1  UNL1       -0.0026
     28 C         143.4988  137.6455  160.8859 C.3     1  UNL1        0.1611
     29 O         143.8157  138.5972  159.7706 O.3     1  UNL1       -0.3799
     30 H         143.0285  139.1240  159.5616 H       1  UNL1        0.2105
@<TRIPOS>BOND
     1    17    18    1
     2    18    11    1
     3    11    12   ar
     4    12    13   ar
     5    13    14   ar
     6    14    15   ar
     7    15    16   ar
     8    16     1    1
     9     1     2   ar
    10     2     3   ar
    11     3     4   ar
    12     4    19    1
    13    19    21    1
    14    21    28    1
    15    28    29    1
    16    21    22    1
    17    22    23   ar
    18    23    24   ar
    19    24    25   ar
    20    25    26   ar
    21    26    27   ar
    22     4     5   ar
    23     5     6   ar
    24     6     7   ar
    25     7     8   ar
    26     8     9   ar
    27    16    11   ar
    28     9     1   ar
    29     8     3    1
    30    27    22   ar
    31    19    20    1
    32    29    30    1
    33     7    10    1
@<TRIPOS>MOLECULE
*****
 30 33 0 0 0
SMALL
GASTEIGER

@<TRIPOS>ATOM
      1 C         140.0290  141.8271  166.7466 C.ar    1  UNL1        0.0860
      2 C         139.1611  141.0908  165.7696 C.ar    1  UNL1        0.0250
      3 C         138.6736  142.0759  164.7487 C.ar    1  UNL1        0.0668
      4 C         137.7870  141.9218  163.5486 C.ar    1  UNL1        0.1333
      5 N         137.4670  143.1127  162.6947 N.ar    1  UNL1       -0.2108
      6 C         138.0337  144.4577  163.0408 C.ar    1  UNL1        0.1773
      7 N         138.9203  144.6118  164.2408 N.ar    1  UNL1       -0.3214
      8 C         139.2403  143.4208  165.0947 C.ar    1  UNL1        0.1443
      9 N         140.0780  143.2671  166.3295 N.ar    1  UNL1       -0.2283
     10 H         139.2923  145.4945  164.4679 H       1  UNL1        0.1689
     11 C         142.2204  141.2975  168.0379 C.ar    1  UNL1        0.1401
     12 C         142.9171  140.6989  169.2237 C.ar    1  UNL1        0.0369
     13 C         142.1191  140.0313  170.3042 C.ar    1  UNL1        0.0031
     14 C         140.6244  139.9622  170.1988 C.ar    1  UNL1        0.0002
     15 C         139.9277  140.5608  169.0129 C.ar    1  UNL1        0.0045
     16 C         140.7257  141.2284  167.9325 C.ar    1  UNL1        0.0517
     17 C         143.3104  141.2345  165.6803 C.3     1  UNL1        0.2525
     18 O         143.0184  141.9652  166.9574 O.3     1  UNL1       -0.4714
     19 N         137.2203  140.5767  163.2026 N.pl3   1  UNL1       -0.3139
     20 H         136.3080  140.3390  163.4865 H       1  UNL1        0.1485
     21 CA        138.0435  139.5938  162.4240 C.3     1  UNL1        0.1227
     22 C         139.2353  138.9429  163.0609 C.ar    1  UNL1       -0.0021
     23 C         139.0428  137.8598  164.0807 C.ar    1  UNL1       -0.0026
     24 C         140.2347  137.2089  164.7176 C.ar    1  UNL1       -0.0003
     25 C         141.6191  137.6410  164.3348 C.ar    1  UNL1       -0.0000
     26 C         141.8117  138.7241  163.3151 C.ar    1  UNL1       -0.0003
     27 C         140.6198  139.3750  162.6781 C.ar    1  UNL1       -0.0026
     28 C         137.6748  139.2618  161.0083 C.3     1  UNL1        0.1611
     29 O         136.3372  139.6704  160.4662 O.3     1  UNL1       -0.3799
     30 H         135.6377  139.1877  160.9336 H       1  UNL1        0.2105
@<TRIPOS>BOND
     1    17    18    1
     2    18    11    1
     3    11    12   ar
     4    12    13   ar
     5    13    14   ar
     6    14    15   ar
     7    15    16   ar
     8    16     1    1
     9     1     2   ar
    10     2     3   ar
    11     3     4   ar
    12     4    19    1
    13    19    21    1
    14    21    28    1
    15    28    29    1
    16    21    22    1
    17    22    23   ar
    18    23    24   ar
    19    24    25   ar
    20    25    26   ar
    21    26    27   ar
    22     4     5   ar
    23     5     6   ar
    24     6     7   ar
    25     7     8   ar
    26     8     9   ar
    27    16    11   ar
    28     9     1   ar
    29     8     3    1
    30    27    22   ar
    31    19    20    1
    32    29    30    1
    33     7    10    1
@<TRIPOS>MOLECULE
*****
 30 33 0 0 0
SMALL
GASTEIGER

@<TRIPOS>ATOM
      1 C         142.0478  139.0949  165.6260 C.ar    1  UNL1        0.0860
      2 C         143.1066  139.7839  164.8170 C.ar    1  UNL1        0.0250
      3 C         143.1218  139.1652  163.4506 C.ar    1  UNL1        0.0668
      4 C         143.9557  139.4390  162.2341 C.ar    1  UNL1        0.1333
      5 N         143.7402  138.6415  160.9821 N.ar    1  UNL1       -0.2108
      6 C         142.6909  137.5702  160.9466 C.ar    1  UNL1        0.1773
      7 N         141.8570  137.2965  162.1630 N.ar    1  UNL1       -0.3214
      8 C         142.0725  138.0939  163.4150 C.ar    1  UNL1        0.1443
      9 N         141.4087  138.0505  164.7595 N.ar    1  UNL1       -0.2283
     10 H         141.1683  136.5933  162.1397 H       1  UNL1        0.1689
     11 C         140.3216  139.9083  167.3891 C.ar    1  UNL1        0.1401
     12 C         139.9646  140.2107  168.8142 C.ar    1  UNL1        0.0369
     13 C         140.9767  140.0020  169.9014 C.ar    1  UNL1        0.0031
     14 C         142.3459  139.4910  169.5635 C.ar    1  UNL1        0.0002
     15 C         142.7029  139.1886  168.1384 C.ar    1  UNL1        0.0045
     16 C         141.6908  139.3973  167.0512 C.ar    1  UNL1        0.0517
     17 C         138.1742  139.1504  166.1385 C.3     1  UNL1        0.2525
     18 O         139.3095  140.1170  166.3018 O.3     1  UNL1       -0.4714
     19 N         145.0050  140.5103  162.2697 N.pl3   1  UNL1       -0.3139
     20 H         145.9245  140.2898  162.5440 H       1  UNL1        0.1485
     21 CA        144.6534  141.9175  161.8874 C.3     1  UNL1        0.1227
     22 C         144.4521  142.9556  162.9512 C.ar    1  UNL1       -0.0021
     23 C         143.7684  144.2485  162.6177 C.ar    1  UNL1       -0.0026
     24 C         143.5670  145.2866  163.6814 C.ar    1  UNL1       -0.0003
     25 C         144.0493  145.0320  165.0788 C.ar    1  UNL1       -0.0000
     26 C         144.7330  143.7393  165.4123 C.ar    1  UNL1       -0.0003
     27 C         144.9344  142.7010  164.3485 C.ar    1  UNL1       -0.0026
     28 C         144.5032  142.2865  160.4413 C.3     1  UNL1        0.1611
     29 O         144.1297  141.2389  159.4348 O.3     1  UNL1       -0.3799
     30 H         144.8466  140.5894  159.3630 H       1  UNL1        0.2105
@<TRIPOS>BOND
     1    17    18    1
     2    18    11    1
     3    11    12   ar
     4    12    13   ar
     5    13    14   ar
     6    14    15   ar
     7    15    16   ar
     8    16     1    1
     9     1     2   ar
    10     2     3   ar
    11     3     4   ar
    12     4    19    1
    13    19    21    1
    14    21    28    1
    15    28    29    1
    16    21    22    1
    17    22    23   ar
    18    23    24   ar
    19    24    25   ar
    20    25    26   ar
    21    26    27   ar
    22     4     5   ar
    23     5     6   ar
    24     6     7   ar
    25     7     8   ar
    26     8     9   ar
    27    16    11   ar
    28     9     1   ar
    29     8     3    1
    30    27    22   ar
    31    19    20    1
    32    29    30    1
    33     7    10    1
@<TRIPOS>MOLECULE
*****
 30 33 0 0 0
SMALL
GASTEIGER

@<TRIPOS>ATOM
      1 C         141.9030  141.6039  166.4571 C.ar    1  UNL1        0.0860
      2 C         141.7252  142.7862  165.5514 C.ar    1  UNL1        0.0250
      3 C         142.8400  142.7730  164.5478 C.ar    1  UNL1        0.0668
      4 C         143.1778  143.6913  163.4108 C.ar    1  UNL1        0.1333
      5 N         144.3823  143.4191  162.5594 N.ar    1  UNL1       -0.2108
      6 C         145.2491  142.2287  162.8449 C.ar    1  UNL1        0.1773
      7 N         144.9113  141.3104  163.9819 N.ar    1  UNL1       -0.3214
      8 C         143.7068  141.5826  164.8333 C.ar    1  UNL1        0.1443
      9 N         143.1277  140.8600  166.0133 N.ar    1  UNL1       -0.2283
     10 H         145.4802  140.5291  164.1693 H       1  UNL1        0.1689
     11 C         141.2516  141.8223  168.9627 C.ar    1  UNL1        0.1401
     12 C         140.3612  141.4493  170.1108 C.ar    1  UNL1        0.0369
     13 C         139.2317  140.4848  169.9012 C.ar    1  UNL1        0.0031
     14 C         138.9927  139.8933  168.5437 C.ar    1  UNL1        0.0002
     15 C         139.8831  140.2663  167.3956 C.ar    1  UNL1        0.0045
     16 C         141.0126  141.2308  167.6052 C.ar    1  UNL1        0.0517
     17 C         143.7156  142.2884  169.6421 C.3     1  UNL1        0.2525
     18 O         142.3812  142.7869  169.1722 O.3     1  UNL1       -0.4714
     19 N         142.3110  144.8818  163.1253 N.pl3   1  UNL1       -0.3139
     20 H         142.5892  145.7769  163.4264 H       1  UNL1        0.1485
     21 CA        141.0203  144.7085  162.3810 C.3     1  UNL1        0.1227
     22 C         139.8231  144.1347  163.0792 C.ar    1  UNL1       -0.0021
     23 C         139.2332  142.8369  162.6125 C.ar    1  UNL1       -0.0026
     24 C         138.0360  142.2631  163.3107 C.ar    1  UNL1       -0.0003
     25 C         137.4287  142.9871  164.4756 C.ar    1  UNL1       -0.0000
     26 C         138.0186  144.2848  164.9423 C.ar    1  UNL1       -0.0003
     27 C         139.2158  144.8587  164.2441 C.ar    1  UNL1       -0.0026
     28 C         140.9267  145.1090  160.9384 C.3     1  UNL1        0.1611
     29 O         142.1538  145.0973  160.0758 O.3     1  UNL1       -0.3799
     30 H         142.7771  145.7703  160.3910 H       1  UNL1        0.2105
@<TRIPOS>BOND
     1    17    18    1
     2    18    11    1
     3    11    12   ar
     4    12    13   ar
     5    13    14   ar
     6    14    15   ar
     7    15    16   ar
     8    16     1    1
     9     1     2   ar
    10     2     3   ar
    11     3     4   ar
    12     4    19    1
    13    19    21    1
    14    21    28    1
    15    28    29    1
    16    21    22    1
    17    22    23   ar
    18    23    24   ar
    19    24    25   ar
    20    25    26   ar
    21    26    27   ar
    22     4     5   ar
    23     5     6   ar
    24     6     7   ar
    25     7     8   ar
    26     8     9   ar
    27    16    11   ar
    28     9     1   ar
    29     8     3    1
    30    27    22   ar
    31    19    20    1
    32    29    30    1
    33     7    10    1
@<TRIPOS>MOLECULE
*****
 30 33 0 0 0
SMALL
GASTEIGER

@<TRIPOS>ATOM
      1 C         139.7552  140.5581  166.0512 C.ar    1  UNL1        0.0860
      2 C         139.7583  141.8914  165.3641 C.ar    1  UNL1        0.0250
      3 C         138.9990  141.7518  164.0779 C.ar    1  UNL1        0.0668
      4 C         138.6768  142.7339  162.9910 C.ar    1  UNL1        0.1333
      5 N         137.8822  142.2965  161.7963 N.ar    1  UNL1       -0.2108
      6 C         137.4098  140.8770  161.6886 C.ar    1  UNL1        0.1773
      7 N         137.7321  139.8948  162.7756 N.ar    1  UNL1       -0.3214
      8 C         138.5267  140.3322  163.9702 C.ar    1  UNL1        0.1443
      9 N         138.9940  139.5944  165.1898 N.ar    1  UNL1       -0.2283
     10 H         137.4220  138.9631  162.7049 H       1  UNL1        0.1689
     11 C         141.8388  139.8222  167.4177 C.ar    1  UNL1        0.1401
     12 C         142.4836  139.5076  168.7349 C.ar    1  UNL1        0.0369
     13 C         141.6897  139.6144  170.0031 C.ar    1  UNL1        0.0031
     14 C         140.2509  140.0358  169.9539 C.ar    1  UNL1        0.0002
     15 C         139.6061  140.3503  168.6367 C.ar    1  UNL1        0.0045
     16 C         140.4000  140.2435  167.3686 C.ar    1  UNL1        0.0517
     17 C         142.8549  138.3748  165.5143 C.3     1  UNL1        0.2525
     18 O         142.6327  139.7154  166.1494 O.3     1  UNL1       -0.4714
     19 N         139.1492  144.1536  163.0987 N.pl3   1  UNL1       -0.3139
     20 H         138.6205  144.8112  163.6059 H       1  UNL1        0.1485
     21 CA        140.4271  144.5713  162.4335 C.3     1  UNL1        0.1227
     22 C         141.7447  144.1184  162.9892 C.ar    1  UNL1       -0.0021
     23 C         142.2558  142.7423  162.6805 C.ar    1  UNL1       -0.0026
     24 C         143.5733  142.2894  163.2362 C.ar    1  UNL1       -0.0003
     25 C         144.3799  143.2126  164.1007 C.ar    1  UNL1       -0.0000
     26 C         143.8689  144.5886  164.4094 C.ar    1  UNL1       -0.0003
     27 C         142.5513  145.0415  163.8537 C.ar    1  UNL1       -0.0026
     28 C         140.3874  145.4419  161.2126 C.3     1  UNL1        0.1611
     29 O         141.5987  145.5594  160.3356 O.3     1  UNL1       -0.3799
     30 H         142.3111  145.9991  160.8255 H       1  UNL1        0.2105
@<TRIPOS>BOND
     1    17    18    1
     2    18    11    1
     3    11    12   ar
     4    12    13   ar
     5    13    14   ar
     6    14    15   ar
     7    15    16   ar
     8    16     1    1
     9     1     2   ar
    10     2     3   ar
    11     3     4   ar
    12     4    19    1
    13    19    21    1
    14    21    28    1
    15    28    29    1
    16    21    22    1
    17    22    23   ar
    18    23    24   ar
    19    24    25   ar
    20    25    26   ar
    21    26    27   ar
    22     4     5   ar
    23     5     6   ar
    24     6     7   ar
    25     7     8   ar
    26     8     9   ar
    27    16    11   ar
    28     9     1   ar
    29     8     3    1
    30    27    22   ar
    31    19    20    1
    32    29    30    1
    33     7    10    1
@<TRIPOS>MOLECULE
*****
 30 33 0 0 0
SMALL
GASTEIGER

@<TRIPOS>ATOM
      1 C         140.2591  141.8962  166.9208 C.ar    1  UNL1        0.0860
      2 C         139.4228  141.0402  166.0165 C.ar    1  UNL1        0.0250
      3 C         138.7811  141.9331  164.9960 C.ar    1  UNL1        0.0668
      4 C         137.8532  141.6461  163.8530 C.ar    1  UNL1        0.1333
      5 N         137.3651  142.7668  162.9837 N.ar    1  UNL1       -0.2108
      6 C         137.8049  144.1745  163.2574 C.ar    1  UNL1        0.1773
      7 N         138.7329  144.4615  164.4004 N.ar    1  UNL1       -0.3214
      8 C         139.2210  143.3408  165.2697 C.ar    1  UNL1        0.1443
      9 N         140.1344  143.3180  166.4593 N.ar    1  UNL1       -0.2283
     10 H         139.0216  145.3854  164.5800 H       1  UNL1        0.1689
     11 C         140.4971  140.4241  169.0484 C.ar    1  UNL1        0.1401
     12 C         141.3146  139.9428  170.2102 C.ar    1  UNL1        0.0369
     13 C         142.7118  140.4521  170.4064 C.ar    1  UNL1        0.0031
     14 C         143.2914  141.4428  169.4407 C.ar    1  UNL1        0.0002
     15 C         142.4739  141.9242  168.2788 C.ar    1  UNL1        0.0045
     16 C         141.0767  141.4148  168.0827 C.ar    1  UNL1        0.0517
     17 C         138.1367  139.9055  170.0020 C.3     1  UNL1        0.2525
     18 O         139.0999  139.9147  168.8522 O.3     1  UNL1       -0.4714
     19 N         137.4133  140.2384  163.5793 N.pl3   1  UNL1       -0.3139
     20 H         136.5828  139.8952  163.9814 H       1  UNL1        0.1485
     21 CA        138.2389  139.3536  162.6930 C.3     1  UNL1        0.1227
     22 C         139.5830  138.8738  163.1546 C.ar    1  UNL1       -0.0021
     23 C         140.8284  139.5640  162.6827 C.ar    1  UNL1       -0.0026
     24 C         142.1725  139.0842  163.1444 C.ar    1  UNL1       -0.0003
     25 C         142.2713  137.9142  164.0779 C.ar    1  UNL1       -0.0000
     26 C         141.0259  137.2241  164.5498 C.ar    1  UNL1       -0.0003
     27 C         139.6817  137.7038  164.0881 C.ar    1  UNL1       -0.0026
     28 C         137.7203  138.9486  161.3449 C.3     1  UNL1        0.1611
     29 O         136.5749  139.6945  160.7269 O.3     1  UNL1       -0.3799
     30 H         135.7747  139.5553  161.2572 H       1  UNL1        0.2105
@<TRIPOS>BOND
     1    17    18    1
     2    18    11    1
     3    11    12   ar
     4    12    13   ar
     5    13    14   ar
     6    14    15   ar
     7    15    16   ar
     8    16     1    1
     9     1     2   ar
    10     2     3   ar
    11     3     4   ar
    12     4    19    1
    13    19    21    1
    14    21    28    1
    15    28    29    1
    16    21    22    1
    17    22    23   ar
    18    23    24   ar
    19    24    25   ar
    20    25    26   ar
    21    26    27   ar
    22     4     5   ar
    23     5     6   ar
    24     6     7   ar
    25     7     8   ar
    26     8     9   ar
    27    16    11   ar
    28     9     1   ar
    29     8     3    1
    30    27    22   ar
    31    19    20    1
    32    29    30    1
    33     7    10    1
