@<TRIPOS>MOLECULE
*****
 36 39 0 0 0
SMALL
GASTEIGER

@<TRIPOS>ATOM
      1 C         141.8066  140.5425  165.0958 C.ar    1  UNL1        0.0528
      2 C         141.4357  141.2779  163.8422 C.ar    1  UNL1        0.0167
      3 C         142.4104  141.3612  162.7052 C.ar    1  UNL1        0.0505
      4 C         143.7562  140.7089  162.8217 C.ar    1  UNL1        0.0170
      5 C         144.1271  139.9735  164.0752 C.ar    1  UNL1        0.0307
      6 C         143.1524  139.8902  165.2124 C.ar    1  UNL1        0.1402
      7 F         143.5234  139.1548  166.4659 F       1  UNL1       -0.2044
      8 C         141.1900  143.2870  169.7151 C.3     1  UNL1        0.0320
      9 C         141.0706  142.3444  168.5543 C.3     1  UNL1        0.1157
     10 C         139.9765  141.3186  168.5306 C.3     1  UNL1        0.0343
     11 C         139.8571  140.3760  167.3699 C.3     1  UNL1        0.0601
     12 C         138.7629  139.3502  167.3462 C.3     1  UNL1        0.0837
     13 C         138.6436  138.4076  166.1855 C.3     1  UNL1        0.3553
     14 F         138.1229  137.3029  165.3146 F       1  UNL1       -0.1914
     15 F         137.4880  137.9407  167.0201 F       1  UNL1       -0.1914
     16 C         139.6184  138.4909  165.0484 C.2     1  UNL1        0.3505
     17 N         139.4990  137.5483  163.8877 N.pl3   1  UNL1       -0.2456
     18 N         140.7125  139.5167  165.0721 N.2     1  UNL1       -0.0666
     19 C         140.8319  140.4592  166.2329 C.3     1  UNL1        0.2224
     20 C         141.9260  141.4850  166.2566 C.3     1  UNL1        0.1950
     21 O         142.0454  142.4276  167.4173 O.3     1  UNL1       -0.3514
     22 H         138.7809  136.8750  163.8721 H       1  UNL1        0.2883
     23 H         140.1388  137.6029  163.1414 H       1  UNL1        0.2883
     24 N         142.0394  142.0966  161.4515 N.am    1  UNL1       -0.2791
     25 C         142.0201  143.5965  161.4398 C.2     1  UNL1        0.2688
     26 O         142.3718  144.3608  162.6816 O.2     1  UNL1       -0.2681
     27 H         141.8087  141.5949  160.6365 H       1  UNL1        0.1552
     28 C         141.6492  144.3319  160.1862 C.ar    1  UNL1        0.1541
     29 C         140.3646  145.1036  160.1217 C.ar    1  UNL1        0.1258
     30 N         139.9936  145.8391  158.8681 N.ar    1  UNL1       -0.2070
     31 C         140.9073  145.8029  157.6790 C.ar    1  UNL1        0.2469
     32 C         142.1920  145.0312  157.7436 C.ar    1  UNL1        0.1566
     33 N         142.5629  144.2957  158.9972 N.ar    1  UNL1       -0.2328
     34 O         140.5364  146.5384  156.4255 O.3     1  UNL1       -0.4265
     35 C         139.1552  147.1017  156.2672 C.3     1  UNL1        0.4044
     36 F         138.7060  148.2408  157.1337 F       1  UNL1       -0.1809
@<TRIPOS>BOND
     1     9     8    1
     2     9    10    1
     3    11    10    1
     4    11    12    1
     5    12    13    1
     6    13    14    1
     7    13    15    1
     8    13    16    1
     9    16    17    1
    10    16    18    2
    11    18    19    1
    12    19     1    1
    13     1     2   ar
    14     2     3   ar
    15     3    24    1
    16    24    25   am
    17    25    26    2
    18    25    28    1
    19    28    29   ar
    20    29    30   ar
    21    30    31   ar
    22    31    34    1
    23    34    35    1
    24    35    36    1
    25    31    32   ar
    26    32    33   ar
    27     3     4   ar
    28     4     5   ar
    29     5     6   ar
    30     6     7    1
    31    19    20    1
    32    20    21    1
    33    21     9    1
    34    19    11    1
    35     6     1   ar
    36    33    28   ar
    37    17    22    1
    38    17    23    1
    39    24    27    1
@<TRIPOS>MOLECULE
*****
 36 39 0 0 0
SMALL
GASTEIGER

@<TRIPOS>ATOM
      1 C         139.9395  142.8975  164.6443 C.ar    1  UNL1        0.0528
      2 C         139.7138  142.1836  163.3445 C.ar    1  UNL1        0.0167
      3 C         138.5155  142.5146  162.5052 C.ar    1  UNL1        0.0505
      4 C         137.5428  143.5595  162.9656 C.ar    1  UNL1        0.0170
      5 C         137.7684  144.2735  164.2653 C.ar    1  UNL1        0.0307
      6 C         138.9668  143.9425  165.1047 C.ar    1  UNL1        0.1402
      7 F         139.1924  144.6564  166.4044 F       1  UNL1       -0.2044
      8 C         140.7186  139.8113  169.0167 C.3     1  UNL1        0.0320
      9 C         140.8583  140.7297  167.8390 C.3     1  UNL1        0.1157
     10 C         142.1963  141.3171  167.5006 C.3     1  UNL1        0.0343
     11 C         142.3360  142.2356  166.3229 C.3     1  UNL1        0.0601
     12 C         143.6742  142.8230  165.9845 C.3     1  UNL1        0.0837
     13 C         143.8139  143.7415  164.8069 C.3     1  UNL1        0.3553
     14 F         144.4460  144.6551  163.7991 F       1  UNL1       -0.1914
     15 F         145.2318  143.7278  165.2962 F       1  UNL1       -0.1914
     16 C         142.6155  144.0724  163.9675 C.2     1  UNL1        0.3505
     17 N         142.7552  144.9909  162.7898 N.pl3   1  UNL1       -0.2456
     18 N         141.2775  143.4850  164.3059 N.2     1  UNL1       -0.0666
     19 C         141.1377  142.5666  165.4836 C.3     1  UNL1        0.2224
     20 C         139.7997  141.9791  165.8220 C.3     1  UNL1        0.1950
     21 O         139.6600  141.0607  166.9997 O.3     1  UNL1       -0.3514
     22 H         143.6334  145.3764  162.5677 H       1  UNL1        0.2883
     23 H         141.9687  145.2081  162.2390 H       1  UNL1        0.2883
     24 N         138.2898  141.8006  161.2054 N.am    1  UNL1       -0.2791
     25 C         138.6289  142.4763  159.9098 C.2     1  UNL1        0.2688
     26 O         139.1936  143.8660  159.9141 O.2     1  UNL1       -0.2681
     27 H         137.9192  140.8885  161.2026 H       1  UNL1        0.1552
     28 C         138.4032  141.7625  158.6101 C.ar    1  UNL1        0.1541
     29 C         138.8182  140.3289  158.4599 C.ar    1  UNL1        0.1258
     30 N         138.5926  139.6150  157.1601 N.ar    1  UNL1       -0.2070
     31 C         137.9519  140.3347  156.0105 C.ar    1  UNL1        0.2469
     32 C         137.5369  141.7683  156.1607 C.ar    1  UNL1        0.1566
     33 N         137.7626  142.4822  157.4605 N.ar    1  UNL1       -0.2328
     34 O         137.7263  139.6208  154.7107 O.3     1  UNL1       -0.4265
     35 C         136.3796  139.0386  154.3987 C.3     1  UNL1        0.4044
     36 F         136.1492  137.5632  154.5402 F       1  UNL1       -0.1809
@<TRIPOS>BOND
     1     9     8    1
     2     9    10    1
     3    11    10    1
     4    11    12    1
     5    12    13    1
     6    13    14    1
     7    13    15    1
     8    13    16    1
     9    16    17    1
    10    16    18    2
    11    18    19    1
    12    19     1    1
    13     1     2   ar
    14     2     3   ar
    15     3    24    1
    16    24    25   am
    17    25    26    2
    18    25    28    1
    19    28    29   ar
    20    29    30   ar
    21    30    31   ar
    22    31    34    1
    23    34    35    1
    24    35    36    1
    25    31    32   ar
    26    32    33   ar
    27     3     4   ar
    28     4     5   ar
    29     5     6   ar
    30     6     7    1
    31    19    20    1
    32    20    21    1
    33    21     9    1
    34    19    11    1
    35     6     1   ar
    36    33    28   ar
    37    17    22    1
    38    17    23    1
    39    24    27    1
@<TRIPOS>MOLECULE
*****
 36 39 0 0 0
SMALL
GASTEIGER

@<TRIPOS>ATOM
      1 C         139.8148  139.9613  165.2216 C.ar    1  UNL1        0.0528
      2 C         140.4964  139.6668  163.9182 C.ar    1  UNL1        0.0167
      3 C         140.2211  138.3777  163.2024 C.ar    1  UNL1        0.0505
      4 C         139.2643  137.3831  163.7899 C.ar    1  UNL1        0.0170
      5 C         138.5828  137.6775  165.0932 C.ar    1  UNL1        0.0307
      6 C         138.8580  138.9666  165.8091 C.ar    1  UNL1        0.1402
      7 F         138.1764  139.2611  167.1124 F       1  UNL1       -0.2044
      8 C         143.0695  141.3607  169.3079 C.3     1  UNL1        0.0320
      9 C         142.0764  141.3240  168.1844 C.3     1  UNL1        0.1157
     10 C         141.3585  142.5763  167.7767 C.3     1  UNL1        0.0343
     11 C         140.3653  142.5395  166.6532 C.3     1  UNL1        0.0601
     12 C         139.6474  143.7919  166.2455 C.3     1  UNL1        0.0837
     13 C         138.6542  143.7551  165.1220 C.3     1  UNL1        0.3553
     14 F         137.6336  144.2224  164.1271 F       1  UNL1       -0.1914
     15 F         138.5750  145.2065  165.4923 F       1  UNL1       -0.1914
     16 C         138.3790  142.4659  164.4062 C.2     1  UNL1        0.3505
     17 N         137.3858  142.4291  163.2827 N.pl3   1  UNL1       -0.2456
     18 N         139.0969  141.2136  164.8139 N.2     1  UNL1       -0.0666
     19 C         140.0900  141.2504  165.9374 C.3     1  UNL1        0.2224
     20 C         140.8080  139.9981  166.3451 C.3     1  UNL1        0.1950
     21 O         141.8011  140.0349  167.4686 O.3     1  UNL1       -0.3514
     22 H         136.9146  143.2511  163.0151 H       1  UNL1        0.2883
     23 H         137.2052  141.5830  162.8129 H       1  UNL1        0.2883
     24 N         140.9027  138.0832  161.8989 N.am    1  UNL1       -0.2791
     25 C         140.4064  138.7168  160.6331 C.2     1  UNL1        0.2688
     26 O         139.2284  139.6448  160.6707 O.2     1  UNL1       -0.2681
     27 H         141.6758  137.4741  161.8743 H       1  UNL1        0.1552
     28 C         141.0879  138.4223  159.3298 C.ar    1  UNL1        0.1541
     29 C         142.5838  138.4807  159.2356 C.ar    1  UNL1        0.1258
     30 N         143.2653  138.1863  157.9322 N.ar    1  UNL1       -0.2070
     31 C         142.4509  137.8334  156.7229 C.ar    1  UNL1        0.2469
     32 C         140.9550  137.7750  156.8171 C.ar    1  UNL1        0.1566
     33 N         140.2735  138.0695  158.1206 N.ar    1  UNL1       -0.2328
     34 O         143.1324  137.5390  155.4196 O.3     1  UNL1       -0.4265
     35 C         144.1672  136.4559  155.3422 C.3     1  UNL1        0.4044
     36 F         144.1852  135.3611  156.3675 F       1  UNL1       -0.1809
@<TRIPOS>BOND
     1     9     8    1
     2     9    10    1
     3    11    10    1
     4    11    12    1
     5    12    13    1
     6    13    14    1
     7    13    15    1
     8    13    16    1
     9    16    17    1
    10    16    18    2
    11    18    19    1
    12    19     1    1
    13     1     2   ar
    14     2     3   ar
    15     3    24    1
    16    24    25   am
    17    25    26    2
    18    25    28    1
    19    28    29   ar
    20    29    30   ar
    21    30    31   ar
    22    31    34    1
    23    34    35    1
    24    35    36    1
    25    31    32   ar
    26    32    33   ar
    27     3     4   ar
    28     4     5   ar
    29     5     6   ar
    30     6     7    1
    31    19    20    1
    32    20    21    1
    33    21     9    1
    34    19    11    1
    35     6     1   ar
    36    33    28   ar
    37    17    22    1
    38    17    23    1
    39    24    27    1
@<TRIPOS>MOLECULE
*****
 36 39 0 0 0
SMALL
GASTEIGER

@<TRIPOS>ATOM
      1 C         142.9909  142.0023  164.6017 C.ar    1  UNL1        0.0528
      2 C         142.8599  141.0841  163.4227 C.ar    1  UNL1        0.0167
      3 C         144.0591  140.7739  162.5768 C.ar    1  UNL1        0.0505
      4 C         145.3894  141.3818  162.9099 C.ar    1  UNL1        0.0170
      5 C         145.5204  142.2998  164.0888 C.ar    1  UNL1        0.0307
      6 C         144.3212  142.6101  164.9348 C.ar    1  UNL1        0.1402
      7 F         144.4522  143.5282  166.1137 F       1  UNL1       -0.2044
      8 C         141.0386  139.9838  169.2239 C.3     1  UNL1        0.0320
      9 C         141.2896  140.7600  167.9651 C.3     1  UNL1        0.1157
     10 C         140.3414  141.8465  167.5523 C.3     1  UNL1        0.0343
     11 C         140.5925  142.6227  166.2935 C.3     1  UNL1        0.0601
     12 C         139.6442  143.7093  165.8807 C.3     1  UNL1        0.0837
     13 C         139.8952  144.4855  164.6219 C.3     1  UNL1        0.3553
     14 F         139.7071  145.4907  163.5246 F       1  UNL1       -0.1914
     15 F         138.6307  145.1448  165.0868 F       1  UNL1       -0.1914
     16 C         141.0945  144.1752  163.7760 C.2     1  UNL1        0.3505
     17 N         141.3456  144.9514  162.5173 N.pl3   1  UNL1       -0.2456
     18 N         142.0427  143.0887  164.1889 N.2     1  UNL1       -0.0666
     19 C         141.7917  142.3125  165.4476 C.3     1  UNL1        0.2224
     20 C         142.7399  141.2260  165.8605 C.3     1  UNL1        0.1950
     21 O         142.4888  140.4498  167.1192 O.3     1  UNL1       -0.3514
     22 H         140.7232  145.6645  162.2463 H       1  UNL1        0.2883
     23 H         142.1327  144.7478  161.9621 H       1  UNL1        0.2883
     24 N         143.9281  139.8558  161.3978 N.am    1  UNL1       -0.2791
     25 C         143.4860  140.3976  160.0708 C.2     1  UNL1        0.2688
     26 O         143.1749  141.8576  159.9228 O.2     1  UNL1       -0.2681
     27 H         144.1323  138.8976  161.4950 H       1  UNL1        0.1552
     28 C         143.3550  139.4796  158.8919 C.ar    1  UNL1        0.1541
     29 C         142.6854  138.1467  159.0500 C.ar    1  UNL1        0.1258
     30 N         142.5543  137.2286  157.8710 N.ar    1  UNL1       -0.2070
     31 C         143.0930  137.6435  156.5339 C.ar    1  UNL1        0.2469
     32 C         143.7626  138.9764  156.3758 C.ar    1  UNL1        0.1566
     33 N         143.8936  139.8944  157.5548 N.ar    1  UNL1       -0.2328
     34 O         142.9620  136.7254  155.3549 O.3     1  UNL1       -0.4265
     35 C         143.7644  135.4594  155.2973 C.3     1  UNL1        0.4044
     36 F         144.1589  134.7632  156.5660 F       1  UNL1       -0.1809
@<TRIPOS>BOND
     1     9     8    1
     2     9    10    1
     3    11    10    1
     4    11    12    1
     5    12    13    1
     6    13    14    1
     7    13    15    1
     8    13    16    1
     9    16    17    1
    10    16    18    2
    11    18    19    1
    12    19     1    1
    13     1     2   ar
    14     2     3   ar
    15     3    24    1
    16    24    25   am
    17    25    26    2
    18    25    28    1
    19    28    29   ar
    20    29    30   ar
    21    30    31   ar
    22    31    34    1
    23    34    35    1
    24    35    36    1
    25    31    32   ar
    26    32    33   ar
    27     3     4   ar
    28     4     5   ar
    29     5     6   ar
    30     6     7    1
    31    19    20    1
    32    20    21    1
    33    21     9    1
    34    19    11    1
    35     6     1   ar
    36    33    28   ar
    37    17    22    1
    38    17    23    1
    39    24    27    1
@<TRIPOS>MOLECULE
*****
 36 39 0 0 0
SMALL
GASTEIGER

@<TRIPOS>ATOM
      1 C         140.6677  139.6596  164.3861 C.ar    1  UNL1        0.0528
      2 C         139.8896  140.2672  163.2568 C.ar    1  UNL1        0.0167
      3 C         139.5093  139.4297  162.0719 C.ar    1  UNL1        0.0505
      4 C         139.9073  137.9845  162.0163 C.ar    1  UNL1        0.0170
      5 C         140.6854  137.3769  163.1455 C.ar    1  UNL1        0.0307
      6 C         141.0657  138.2144  164.3304 C.ar    1  UNL1        0.1402
      7 F         141.8439  137.6067  165.4596 F       1  UNL1       -0.2044
      8 C         144.5222  143.3434  165.2927 C.3     1  UNL1        0.0320
      9 C         143.3641  142.3946  165.3854 C.3     1  UNL1        0.1157
     10 C         142.5863  142.2833  166.6631 C.3     1  UNL1        0.0343
     11 C         141.4282  141.3346  166.7559 C.3     1  UNL1        0.0601
     12 C         140.6502  141.2233  168.0336 C.3     1  UNL1        0.0837
     13 C         139.4922  140.2745  168.1264 C.3     1  UNL1        0.3553
     14 F         138.3254  139.5264  168.6998 F       1  UNL1       -0.1914
     15 F         139.4672  140.8522  169.5104 F       1  UNL1       -0.1914
     16 C         139.1120  139.4370  166.9414 C.2     1  UNL1        0.3505
     17 N         137.9539  138.4882  167.0342 N.pl3   1  UNL1       -0.2456
     18 N         139.8899  139.5483  165.6638 N.2     1  UNL1       -0.0666
     19 C         141.0480  140.4971  165.5710 C.3     1  UNL1        0.2224
     20 C         141.8258  140.6083  164.2933 C.3     1  UNL1        0.1950
     21 O         142.9839  141.5571  164.2006 O.3     1  UNL1       -0.3514
     22 H         137.4433  138.4152  167.8728 H       1  UNL1        0.2883
     23 H         137.7043  137.9385  166.2565 H       1  UNL1        0.2883
     24 N         138.7311  140.0374  160.9426 N.am    1  UNL1       -0.2791
     25 C         139.4521  140.6254  159.7660 C.2     1  UNL1        0.2688
     26 O         140.9513  140.6057  159.7187 O.2     1  UNL1       -0.2681
     27 H         137.7472  140.0503  160.9737 H       1  UNL1        0.1552
     28 C         138.6740  141.2330  158.6368 C.ar    1  UNL1        0.1541
     29 C         139.0299  142.5994  158.1305 C.ar    1  UNL1        0.1258
     30 N         138.2518  143.2071  157.0013 N.ar    1  UNL1       -0.2070
     31 C         137.1177  142.4483  156.3782 C.ar    1  UNL1        0.2469
     32 C         136.7618  141.0819  156.8844 C.ar    1  UNL1        0.1566
     33 N         137.5400  140.4743  158.0137 N.ar    1  UNL1       -0.2328
     34 O         136.3396  143.0559  155.2489 O.3     1  UNL1       -0.4265
     35 C         137.0089  144.0107  154.3053 C.3     1  UNL1        0.4044
     36 F         137.0938  145.4685  154.6482 F       1  UNL1       -0.1809
@<TRIPOS>BOND
     1     9     8    1
     2     9    10    1
     3    11    10    1
     4    11    12    1
     5    12    13    1
     6    13    14    1
     7    13    15    1
     8    13    16    1
     9    16    17    1
    10    16    18    2
    11    18    19    1
    12    19     1    1
    13     1     2   ar
    14     2     3   ar
    15     3    24    1
    16    24    25   am
    17    25    26    2
    18    25    28    1
    19    28    29   ar
    20    29    30   ar
    21    30    31   ar
    22    31    34    1
    23    34    35    1
    24    35    36    1
    25    31    32   ar
    26    32    33   ar
    27     3     4   ar
    28     4     5   ar
    29     5     6   ar
    30     6     7    1
    31    19    20    1
    32    20    21    1
    33    21     9    1
    34    19    11    1
    35     6     1   ar
    36    33    28   ar
    37    17    22    1
    38    17    23    1
    39    24    27    1
@<TRIPOS>MOLECULE
*****
 36 39 0 0 0
SMALL
GASTEIGER

@<TRIPOS>ATOM
      1 C         140.6916  142.6301  163.8296 C.ar    1  UNL1        0.0528
      2 C         140.5847  143.1051  162.4108 C.ar    1  UNL1        0.0167
      3 C         139.8200  144.3561  162.0943 C.ar    1  UNL1        0.0505
      4 C         139.1620  145.1320  163.1966 C.ar    1  UNL1        0.0170
      5 C         139.2688  144.6570  164.6153 C.ar    1  UNL1        0.0307
      6 C         140.0336  143.4060  164.9319 C.ar    1  UNL1        0.1402
      7 F         140.1404  142.9310  166.3506 F       1  UNL1       -0.2044
      8 C         145.9527  141.3845  163.9661 C.3     1  UNL1        0.0320
      9 C         144.4539  141.3827  164.0261 C.3     1  UNL1        0.1157
     10 C         143.7199  140.1300  164.4026 C.3     1  UNL1        0.0343
     11 C         142.2211  140.1282  164.4626 C.3     1  UNL1        0.0601
     12 C         141.4870  138.8754  164.8391 C.3     1  UNL1        0.0837
     13 C         139.9882  138.8736  164.8991 C.3     1  UNL1        0.3553
     14 F         138.5859  138.3775  165.0923 F       1  UNL1       -0.1914
     15 F         140.2660  137.4503  165.2827 F       1  UNL1       -0.1914
     16 C         139.2235  140.1246  164.5826 C.2     1  UNL1        0.3505
     17 N         137.7247  140.1228  164.6426 N.pl3   1  UNL1       -0.2456
     18 N         139.9575  141.3773  164.2061 N.2     1  UNL1       -0.0666
     19 C         141.4563  141.3791  164.1461 C.3     1  UNL1        0.2224
     20 C         142.1904  142.6319  163.7696 C.3     1  UNL1        0.1950
     21 O         143.6892  142.6337  163.7096 O.3     1  UNL1       -0.3514
     22 H         137.2429  139.3006  164.8897 H       1  UNL1        0.2883
     23 H         137.2227  140.9439  164.4349 H       1  UNL1        0.2883
     24 N         139.7131  144.8311  160.6755 N.am    1  UNL1       -0.2791
     25 C         140.9536  145.0318  159.8563 C.2     1  UNL1        0.2688
     26 O         142.3009  144.7574  160.4560 O.2     1  UNL1       -0.2681
     27 H         138.8289  145.0112  160.2819 H       1  UNL1        0.1552
     28 C         140.8468  145.5068  158.4376 C.ar    1  UNL1        0.1541
     29 C         141.9235  145.1673  157.4499 C.ar    1  UNL1        0.1258
     30 N         141.8167  145.6423  156.0312 N.ar    1  UNL1       -0.2070
     31 C         140.6332  146.4569  155.6000 C.ar    1  UNL1        0.2469
     32 C         139.5566  146.7965  156.5877 C.ar    1  UNL1        0.1566
     33 N         139.6634  146.3214  158.0065 N.ar    1  UNL1       -0.2328
     34 O         140.5265  146.9320  154.1813 O.3     1  UNL1       -0.4265
     35 C         139.9742  148.2951  153.8863 C.3     1  UNL1        0.4044
     36 F         140.5660  149.5036  154.5490 F       1  UNL1       -0.1809
@<TRIPOS>BOND
     1     9     8    1
     2     9    10    1
     3    11    10    1
     4    11    12    1
     5    12    13    1
     6    13    14    1
     7    13    15    1
     8    13    16    1
     9    16    17    1
    10    16    18    2
    11    18    19    1
    12    19     1    1
    13     1     2   ar
    14     2     3   ar
    15     3    24    1
    16    24    25   am
    17    25    26    2
    18    25    28    1
    19    28    29   ar
    20    29    30   ar
    21    30    31   ar
    22    31    34    1
    23    34    35    1
    24    35    36    1
    25    31    32   ar
    26    32    33   ar
    27     3     4   ar
    28     4     5   ar
    29     5     6   ar
    30     6     7    1
    31    19    20    1
    32    20    21    1
    33    21     9    1
    34    19    11    1
    35     6     1   ar
    36    33    28   ar
    37    17    22    1
    38    17    23    1
    39    24    27    1
@<TRIPOS>MOLECULE
*****
 36 39 0 0 0
SMALL
GASTEIGER

@<TRIPOS>ATOM
      1 C         142.9148  141.2226  163.7898 C.ar    1  UNL1        0.0528
      2 C         142.4320  142.1901  162.7501 C.ar    1  UNL1        0.0167
      3 C         143.4044  142.8018  161.7857 C.ar    1  UNL1        0.0505
      4 C         144.8597  142.4461  161.8609 C.ar    1  UNL1        0.0170
      5 C         145.3425  141.4787  162.9005 C.ar    1  UNL1        0.0307
      6 C         144.3701  140.8669  163.8650 C.ar    1  UNL1        0.1402
      7 F         144.8530  139.8994  164.9046 F       1  UNL1       -0.2044
      8 C         140.4606  142.9945  168.2716 C.3     1  UNL1        0.0320
      9 C         140.9545  142.1999  167.0991 C.3     1  UNL1        0.1157
     10 C         140.4761  140.7936  166.8911 C.3     1  UNL1        0.0343
     11 C         140.9700  139.9991  165.7186 C.3     1  UNL1        0.0601
     12 C         140.4915  138.5927  165.5105 C.3     1  UNL1        0.0837
     13 C         140.9854  137.7982  164.3380 C.3     1  UNL1        0.3553
     14 F         141.1631  136.6531  163.3856 F       1  UNL1       -0.1914
     15 F         140.0747  136.7887  164.9717 F       1  UNL1       -0.1914
     16 C         141.9579  138.4100  163.3736 C.2     1  UNL1        0.3505
     17 N         142.4518  137.6154  162.2011 N.pl3   1  UNL1       -0.2456
     18 N         142.4364  139.8163  163.5817 N.2     1  UNL1       -0.0666
     19 C         141.9424  140.6108  164.7542 C.3     1  UNL1        0.2224
     20 C         142.4209  142.0171  164.9622 C.3     1  UNL1        0.1950
     21 O         141.9269  142.8117  166.1347 O.3     1  UNL1       -0.3514
     22 H         142.1378  136.6924  162.0646 H       1  UNL1        0.2883
     23 H         143.0901  138.0170  161.5681 H       1  UNL1        0.2883
     24 N         142.9216  143.7693  160.7460 N.am    1  UNL1       -0.2791
     25 C         142.3437  143.2604  159.4587 C.2     1  UNL1        0.2688
     26 O         142.2487  141.7840  159.2111 O.2     1  UNL1       -0.2681
     27 H         142.9840  144.7383  160.9085 H       1  UNL1        0.1552
     28 C         141.8609  144.2279  158.4191 C.ar    1  UNL1        0.1541
     29 C         142.5343  144.2879  157.0801 C.ar    1  UNL1        0.1258
     30 N         142.0515  145.2553  156.0404 N.ar    1  UNL1       -0.2070
     31 C         140.8952  146.1628  156.3397 C.ar    1  UNL1        0.2469
     32 C         140.2217  146.1027  157.6787 C.ar    1  UNL1        0.1566
     33 N         140.7046  145.1352  158.7184 N.ar    1  UNL1       -0.2328
     34 O         140.4123  147.1302  155.3001 O.3     1  UNL1       -0.4265
     35 C         138.9701  147.5414  155.2704 C.3     1  UNL1        0.4044
     36 F         138.5414  148.8209  155.9254 F       1  UNL1       -0.1809
@<TRIPOS>BOND
     1     9     8    1
     2     9    10    1
     3    11    10    1
     4    11    12    1
     5    12    13    1
     6    13    14    1
     7    13    15    1
     8    13    16    1
     9    16    17    1
    10    16    18    2
    11    18    19    1
    12    19     1    1
    13     1     2   ar
    14     2     3   ar
    15     3    24    1
    16    24    25   am
    17    25    26    2
    18    25    28    1
    19    28    29   ar
    20    29    30   ar
    21    30    31   ar
    22    31    34    1
    23    34    35    1
    24    35    36    1
    25    31    32   ar
    26    32    33   ar
    27     3     4   ar
    28     4     5   ar
    29     5     6   ar
    30     6     7    1
    31    19    20    1
    32    20    21    1
    33    21     9    1
    34    19    11    1
    35     6     1   ar
    36    33    28   ar
    37    17    22    1
    38    17    23    1
    39    24    27    1
@<TRIPOS>MOLECULE
*****
 36 39 0 0 0
SMALL
GASTEIGER

@<TRIPOS>ATOM
      1 C         139.5762  141.8590  163.6832 C.ar    1  UNL1        0.0528
      2 C         140.7417  141.8050  162.7405 C.ar    1  UNL1        0.0167
      3 C         140.7363  142.6377  161.4928 C.ar    1  UNL1        0.0505
      4 C         139.5654  143.5243  161.1879 C.ar    1  UNL1        0.0170
      5 C         138.3999  143.5782  162.1306 C.ar    1  UNL1        0.0307
      6 C         138.4053  142.7456  163.3783 C.ar    1  UNL1        0.1402
      7 F         137.2399  142.7995  164.3210 F       1  UNL1       -0.2044
      8 C         140.8032  142.8601  168.8545 C.3     1  UNL1        0.0320
      9 C         140.3960  142.2489  167.5466 C.3     1  UNL1        0.1157
     10 C         139.9943  140.8050  167.4864 C.3     1  UNL1        0.0343
     11 C         139.5871  140.1937  166.1785 C.3     1  UNL1        0.0601
     12 C         139.1853  138.7497  166.1183 C.3     1  UNL1        0.0837
     13 C         138.7781  138.1384  164.8104 C.3     1  UNL1        0.3553
     14 F         138.3172  137.1145  163.8159 F       1  UNL1       -0.1914
     15 F         138.6235  136.9502  165.7127 F       1  UNL1       -0.1914
     16 C         138.7727  138.9712  163.5627 C.2     1  UNL1        0.3505
     17 N         138.3655  138.3599  162.2549 N.pl3   1  UNL1       -0.2456
     18 N         139.1745  140.4151  163.6230 N.2     1  UNL1       -0.0666
     19 C         139.5816  141.0263  164.9309 C.3     1  UNL1        0.2224
     20 C         139.9834  142.4702  164.9911 C.3     1  UNL1        0.1950
     21 O         140.3906  143.0815  166.2990 O.3     1  UNL1       -0.3514
     22 H         138.1018  137.4122  162.2153 H       1  UNL1        0.2883
     23 H         138.3620  138.9064  161.4360 H       1  UNL1        0.2883
     24 N         141.9018  142.5838  160.5500 N.am    1  UNL1       -0.2791
     25 C         142.0604  141.4180  159.6195 C.2     1  UNL1        0.2688
     26 O         141.0535  140.3061  159.6318 O.2     1  UNL1       -0.2681
     27 H         142.5626  143.3135  160.5420 H       1  UNL1        0.1552
     28 C         143.2258  141.3640  158.6768 C.ar    1  UNL1        0.1541
     29 C         143.4769  140.1282  157.8645 C.ar    1  UNL1        0.1258
     30 N         144.6423  140.0743  156.9218 N.ar    1  UNL1       -0.2070
     31 C         145.5568  141.2561  156.7912 C.ar    1  UNL1        0.2469
     32 C         145.3058  142.4919  157.6035 C.ar    1  UNL1        0.1566
     33 N         144.1402  142.5459  158.5463 N.ar    1  UNL1       -0.2328
     34 O         146.7222  141.2022  155.8485 O.3     1  UNL1       -0.4265
     35 C         147.7477  142.2968  155.8602 C.3     1  UNL1        0.4044
     36 F         149.1356  142.0190  156.3566 F       1  UNL1       -0.1809
@<TRIPOS>BOND
     1     9     8    1
     2     9    10    1
     3    11    10    1
     4    11    12    1
     5    12    13    1
     6    13    14    1
     7    13    15    1
     8    13    16    1
     9    16    17    1
    10    16    18    2
    11    18    19    1
    12    19     1    1
    13     1     2   ar
    14     2     3   ar
    15     3    24    1
    16    24    25   am
    17    25    26    2
    18    25    28    1
    19    28    29   ar
    20    29    30   ar
    21    30    31   ar
    22    31    34    1
    23    34    35    1
    24    35    36    1
    25    31    32   ar
    26    32    33   ar
    27     3     4   ar
    28     4     5   ar
    29     5     6   ar
    30     6     7    1
    31    19    20    1
    32    20    21    1
    33    21     9    1
    34    19    11    1
    35     6     1   ar
    36    33    28   ar
    37    17    22    1
    38    17    23    1
    39    24    27    1
@<TRIPOS>MOLECULE
*****
 36 39 0 0 0
SMALL
GASTEIGER

@<TRIPOS>ATOM
      1 C         140.0603  140.4808  163.5609 C.ar    1  UNL1        0.0528
      2 C         141.1283  140.4984  162.5076 C.ar    1  UNL1        0.0167
      3 C         141.0612  139.5402  161.3555 C.ar    1  UNL1        0.0505
      4 C         139.9263  138.5644  161.2566 C.ar    1  UNL1        0.0170
      5 C         138.8584  138.5468  162.3099 C.ar    1  UNL1        0.0307
      6 C         138.9254  139.5050  163.4620 C.ar    1  UNL1        0.1402
      7 F         137.8576  139.4874  164.5152 F       1  UNL1       -0.2044
      8 C         142.6056  140.4358  168.3326 C.3     1  UNL1        0.0320
      9 C         141.7796  140.7702  167.1260 C.3     1  UNL1        0.1157
     10 C         141.0205  142.0628  167.0715 C.3     1  UNL1        0.0343
     11 C         140.1944  142.3972  165.8650 C.3     1  UNL1        0.0601
     12 C         139.4354  143.6899  165.8105 C.3     1  UNL1        0.0837
     13 C         138.6093  144.0243  164.6040 C.3     1  UNL1        0.3553
     14 F         137.6964  144.7829  163.6869 F       1  UNL1       -0.1914
     15 F         138.3593  145.2460  165.4376 F       1  UNL1       -0.1914
     16 C         138.5423  143.0660  163.4519 C.2     1  UNL1        0.3505
     17 N         137.7162  143.4004  162.2453 N.pl3   1  UNL1       -0.2456
     18 N         139.3013  141.7734  163.5064 N.2     1  UNL1       -0.0666
     19 C         140.1274  141.4390  164.7129 C.3     1  UNL1        0.2224
     20 C         140.8864  140.1464  164.7674 C.3     1  UNL1        0.1950
     21 O         141.7125  139.8120  165.9740 O.3     1  UNL1       -0.3514
     22 H         137.2180  144.2488  162.2096 H       1  UNL1        0.2883
     23 H         137.6722  142.7715  161.4892 H       1  UNL1        0.2883
     24 N         142.1291  139.5577  160.3022 N.am    1  UNL1       -0.2791
     25 C         142.3533  140.7935  159.4820 C.2     1  UNL1        0.2688
     26 O         141.5096  142.0116  159.7151 O.2     1  UNL1       -0.2681
     27 H         142.6828  138.7582  160.1492 H       1  UNL1        0.1552
     28 C         143.4211  140.8111  158.4288 C.ar    1  UNL1        0.1541
     29 C         143.5368  139.6727  157.4589 C.ar    1  UNL1        0.1258
     30 N         144.6046  139.6903  156.4057 N.ar    1  UNL1       -0.2070
     31 C         145.5569  140.8463  156.3222 C.ar    1  UNL1        0.2469
     32 C         145.4412  141.9847  157.2921 C.ar    1  UNL1        0.1566
     33 N         144.3733  141.9671  158.3454 N.ar    1  UNL1       -0.2328
     34 O         146.6247  140.8639  155.2690 O.3     1  UNL1       -0.4265
     35 C         147.6335  141.9737  155.2422 C.3     1  UNL1        0.4044
     36 F         148.8353  141.9165  156.1379 F       1  UNL1       -0.1809
@<TRIPOS>BOND
     1     9     8    1
     2     9    10    1
     3    11    10    1
     4    11    12    1
     5    12    13    1
     6    13    14    1
     7    13    15    1
     8    13    16    1
     9    16    17    1
    10    16    18    2
    11    18    19    1
    12    19     1    1
    13     1     2   ar
    14     2     3   ar
    15     3    24    1
    16    24    25   am
    17    25    26    2
    18    25    28    1
    19    28    29   ar
    20    29    30   ar
    21    30    31   ar
    22    31    34    1
    23    34    35    1
    24    35    36    1
    25    31    32   ar
    26    32    33   ar
    27     3     4   ar
    28     4     5   ar
    29     5     6   ar
    30     6     7    1
    31    19    20    1
    32    20    21    1
    33    21     9    1
    34    19    11    1
    35     6     1   ar
    36    33    28   ar
    37    17    22    1
    38    17    23    1
    39    24    27    1
