@<TRIPOS>MOLECULE
*****
 29 32 0 0 0
SMALL
GASTEIGER

@<TRIPOS>ATOM
      1 N         142.1499  141.2378  165.6909 N.3     1  UNL1       -0.2135
      2 O         144.1421  143.2036  166.7711 O.2     1  UNL1       -0.2941
      3 P         143.1460  142.2207  166.2310 P.3     1  UNL1        0.2124
      4 C         143.8480  142.2377  164.9055 C.ar    1  UNL1        0.0466
      5 C         144.5769  141.0171  164.4271 C.ar    1  UNL1        0.0044
      6 C         145.2789  141.0341  163.1017 C.ar    1  UNL1        0.0002
      7 C         145.2520  142.2717  162.2545 C.ar    1  UNL1        0.0000
      8 C         144.5231  143.4923  162.7329 C.ar    1  UNL1        0.0002
      9 C         143.8211  143.4753  164.0584 C.ar    1  UNL1        0.0044
     10 C         142.4441  142.2038  167.5565 C.ar    1  UNL1        0.0466
     11 C         141.1136  142.8795  167.7093 C.ar    1  UNL1        0.0044
     12 C         140.4116  142.8625  169.0348 C.ar    1  UNL1        0.0002
     13 C         141.0401  142.1699  170.2075 C.ar    1  UNL1        0.0000
     14 C         142.3705  141.4942  170.0547 C.ar    1  UNL1        0.0002
     15 C         143.0725  141.5111  168.7292 C.ar    1  UNL1        0.0044
     16 C         141.9042  139.9458  166.4123 C.3     1  UNL1        0.1250
     17 C         140.5464  139.3096  166.3700 C.ar    1  UNL1        0.0756
     18 C         139.5096  139.6865  167.3863 C.ar    1  UNL1        0.0162
     19 C         138.1519  139.0504  167.3439 C.ar    1  UNL1        0.0028
     20 C         137.8309  138.0373  166.2853 C.ar    1  UNL1        0.0207
     21 C         138.8678  137.6604  165.2689 C.ar    1  UNL1        0.0985
     22 N         140.2256  138.2966  165.3113 N.ar    1  UNL1       -0.2467
     23 C         141.3995  141.5469  164.4294 C.3     1  UNL1        0.1250
     24 C         140.1854  142.4265  164.4754 C.ar    1  UNL1        0.0756
     25 C         138.8157  141.8151  164.4733 C.ar    1  UNL1        0.0162
     26 C         137.6015  142.6948  164.5192 C.ar    1  UNL1        0.0028
     27 C         137.7571  144.1859  164.5673 C.ar    1  UNL1        0.0207
     28 C         139.1268  144.7973  164.5695 C.ar    1  UNL1        0.0985
     29 N         140.3409  143.9177  164.5235 N.ar    1  UNL1       -0.2467
@<TRIPOS>BOND
     1     2     3    2
     2     3     4    1
     3     4     5   ar
     4     5     6   ar
     5     6     7   ar
     6     7     8   ar
     7     8     9   ar
     8     3    10    1
     9    10    11   ar
    10    11    12   ar
    11    12    13   ar
    12    13    14   ar
    13    14    15   ar
    14     3     1    1
    15     1    16    1
    16    16    17    1
    17    17    18   ar
    18    18    19   ar
    19    19    20   ar
    20    20    21   ar
    21    21    22   ar
    22     1    23    1
    23    23    24    1
    24    24    25   ar
    25    25    26   ar
    26    26    27   ar
    27    27    28   ar
    28    28    29   ar
    29     9     4   ar
    30    15    10   ar
    31    22    17   ar
    32    29    24   ar
@<TRIPOS>MOLECULE
*****
 29 32 0 0 0
SMALL
GASTEIGER

@<TRIPOS>ATOM
      1 N         142.1497  141.2283  165.7020 N.3     1  UNL1       -0.2135
      2 O         144.1370  143.1907  166.7972 O.2     1  UNL1       -0.2941
      3 P         143.1433  142.2095  166.2496 P.3     1  UNL1        0.2124
      4 C         143.8480  142.2349  164.9256 C.ar    1  UNL1        0.0466
      5 C         144.5838  141.0197  164.4441 C.ar    1  UNL1        0.0044
      6 C         145.2884  141.0451  163.1202 C.ar    1  UNL1        0.0002
      7 C         145.2572  142.2858  162.2777 C.ar    1  UNL1        0.0000
      8 C         144.5214  143.5010  162.7591 C.ar    1  UNL1        0.0002
      9 C         143.8168  143.4756  164.0831 C.ar    1  UNL1        0.0044
     10 C         142.4388  142.1842  167.5735 C.ar    1  UNL1        0.0466
     11 C         143.0613  141.4773  168.7410 C.ar    1  UNL1        0.0044
     12 C         142.3567  141.4520  170.0650 C.ar    1  UNL1        0.0002
     13 C         141.0296  142.1334  170.2215 C.ar    1  UNL1        0.0000
     14 C         140.4071  142.8402  169.0541 C.ar    1  UNL1        0.0002
     15 C         141.1117  142.8656  167.7300 C.ar    1  UNL1        0.0044
     16 C         141.4012  141.5435  164.4409 C.3     1  UNL1        0.1250
     17 C         140.1898  142.4269  164.4886 C.ar    1  UNL1        0.0756
     18 C         138.8180  141.8209  164.4583 C.ar    1  UNL1        0.0162
     19 C         137.6067  142.7043  164.5060 C.ar    1  UNL1        0.0028
     20 C         137.7671  144.1937  164.5840 C.ar    1  UNL1        0.0207
     21 C         139.1389  144.7997  164.6143 C.ar    1  UNL1        0.0985
     22 N         140.3503  143.9163  164.5666 N.ar    1  UNL1       -0.2467
     23 C         141.9045  139.9318  166.4155 C.3     1  UNL1        0.1250
     24 C         140.5461  139.2972  166.3723 C.ar    1  UNL1        0.0756
     25 C         139.5045  139.6855  167.3795 C.ar    1  UNL1        0.0162
     26 C         138.1461  139.0508  167.3362 C.ar    1  UNL1        0.0028
     27 C         137.8292  138.0279  166.2859 C.ar    1  UNL1        0.0207
     28 C         138.8708  137.6396  165.2787 C.ar    1  UNL1        0.0985
     29 N         140.2292  138.2742  165.3219 N.ar    1  UNL1       -0.2467
@<TRIPOS>BOND
     1     2     3    2
     2     3     4    1
     3     4     5   ar
     4     5     6   ar
     5     6     7   ar
     6     7     8   ar
     7     8     9   ar
     8     3    10    1
     9    10    11   ar
    10    11    12   ar
    11    12    13   ar
    12    13    14   ar
    13    14    15   ar
    14     3     1    1
    15     1    16    1
    16    16    17    1
    17    17    18   ar
    18    18    19   ar
    19    19    20   ar
    20    20    21   ar
    21    21    22   ar
    22     1    23    1
    23    23    24    1
    24    24    25   ar
    25    25    26   ar
    26    26    27   ar
    27    27    28   ar
    28    28    29   ar
    29     9     4   ar
    30    15    10   ar
    31    22    17   ar
    32    29    24   ar
@<TRIPOS>MOLECULE
*****
 29 32 0 0 0
SMALL
GASTEIGER

@<TRIPOS>ATOM
      1 N         141.6557  141.2286  166.0035 N.3     1  UNL1       -0.2135
      2 O         139.7321  140.0488  167.9802 O.2     1  UNL1       -0.2941
      3 P         140.6939  140.6387  166.9918 P.3     1  UNL1        0.2124
      4 C         141.3254  141.4451  168.0878 C.ar    1  UNL1        0.0466
      5 C         140.5469  142.5375  168.7590 C.ar    1  UNL1        0.0044
      6 C         141.1784  143.3439  169.8549 C.ar    1  UNL1        0.0002
      7 C         142.5883  143.0578  170.2795 C.ar    1  UNL1        0.0000
      8 C         143.3668  141.9654  169.6082 C.ar    1  UNL1        0.0002
      9 C         142.7353  141.1591  168.5124 C.ar    1  UNL1        0.0044
     10 C         140.0624  139.8323  165.8960 C.ar    1  UNL1        0.0466
     11 C         140.6203  138.4867  165.5381 C.ar    1  UNL1        0.0044
     12 C         139.9889  137.6803  164.4422 C.ar    1  UNL1        0.0002
     13 C         138.7995  138.2195  163.7042 C.ar    1  UNL1        0.0000
     14 C         138.2416  139.5650  164.0621 C.ar    1  UNL1        0.0002
     15 C         138.8730  140.3715  165.1580 C.ar    1  UNL1        0.0044
     16 C         141.6101  142.6962  165.6968 C.3     1  UNL1        0.1250
     17 C         140.4643  143.2632  164.9120 C.ar    1  UNL1        0.0756
     18 C         139.3663  144.0035  165.6164 C.ar    1  UNL1        0.0162
     19 C         138.2205  144.5704  164.8317 C.ar    1  UNL1        0.0028
     20 C         138.1727  144.3970  163.3425 C.ar    1  UNL1        0.0207
     21 C         139.2707  143.6567  162.6381 C.ar    1  UNL1        0.0985
     22 N         140.4165  143.0897  163.4229 N.ar    1  UNL1       -0.2467
     23 C         142.6632  140.3509  165.3218 C.3     1  UNL1        0.1250
     24 C         143.4488  140.8758  164.1567 C.ar    1  UNL1        0.0756
     25 C         144.8403  141.3960  164.3637 C.ar    1  UNL1        0.0162
     26 C         145.6259  141.9209  163.1986 C.ar    1  UNL1        0.0028
     27 C         145.0198  141.9255  161.8265 C.ar    1  UNL1        0.0207
     28 C         143.6283  141.4053  161.6195 C.ar    1  UNL1        0.0985
     29 N         142.8427  140.8804  162.7845 N.ar    1  UNL1       -0.2467
@<TRIPOS>BOND
     1     2     3    2
     2     3     4    1
     3     4     5   ar
     4     5     6   ar
     5     6     7   ar
     6     7     8   ar
     7     8     9   ar
     8     3    10    1
     9    10    11   ar
    10    11    12   ar
    11    12    13   ar
    12    13    14   ar
    13    14    15   ar
    14     3     1    1
    15     1    16    1
    16    16    17    1
    17    17    18   ar
    18    18    19   ar
    19    19    20   ar
    20    20    21   ar
    21    21    22   ar
    22     1    23    1
    23    23    24    1
    24    24    25   ar
    25    25    26   ar
    26    26    27   ar
    27    27    28   ar
    28    28    29   ar
    29     9     4   ar
    30    15    10   ar
    31    22    17   ar
    32    29    24   ar
@<TRIPOS>MOLECULE
*****
 29 32 0 0 0
SMALL
GASTEIGER

@<TRIPOS>ATOM
      1 N         140.9952  141.4516  166.6489 N.3     1  UNL1       -0.2135
      2 O         140.6464  139.5736  168.9622 O.2     1  UNL1       -0.2941
      3 P         140.8208  140.5126  167.8055 P.3     1  UNL1        0.2124
      4 C         141.5592  141.4696  168.6939 C.ar    1  UNL1        0.0466
      5 C         143.0421  141.3339  168.8738 C.ar    1  UNL1        0.0044
      6 C         143.7805  142.2909  169.7621 C.ar    1  UNL1        0.0002
      7 C         143.0359  143.3835  170.4704 C.ar    1  UNL1        0.0000
      8 C         141.5529  143.5191  170.2905 C.ar    1  UNL1        0.0002
      9 C         140.8146  142.5622  169.4022 C.ar    1  UNL1        0.0044
     10 C         140.0824  139.5557  166.9173 C.ar    1  UNL1        0.0466
     11 C         140.7894  138.9023  165.7669 C.ar    1  UNL1        0.0044
     12 C         140.0510  137.9454  164.8787 C.ar    1  UNL1        0.0002
     13 C         138.6057  137.6417  165.1408 C.ar    1  UNL1        0.0000
     14 C         137.8987  138.2950  166.2911 C.ar    1  UNL1        0.0002
     15 C         138.6370  139.2520  167.1794 C.ar    1  UNL1        0.0044
     16 C         140.1232  142.6664  166.5310 C.3     1  UNL1        0.1250
     17 C         139.3331  142.9038  165.2782 C.ar    1  UNL1        0.0756
     18 C         138.4077  141.8418  164.7626 C.ar    1  UNL1        0.0162
     19 C         137.6177  142.0791  163.5099 C.ar    1  UNL1        0.0028
     20 C         137.7529  143.3785  162.7726 C.ar    1  UNL1        0.0207
     21 C         138.6783  144.4405  163.2882 C.ar    1  UNL1        0.0985
     22 N         139.4684  144.2031  164.5411 N.ar    1  UNL1       -0.2467
     23 C         142.0416  141.1759  165.6101 C.3     1  UNL1        0.1250
     24 C         142.6718  142.3119  164.8604 C.ar    1  UNL1        0.0756
     25 C         143.6589  143.2082  165.5476 C.ar    1  UNL1        0.0162
     26 C         144.2891  144.3443  164.7977 C.ar    1  UNL1        0.0028
     27 C         143.9322  144.5841  163.3607 C.ar    1  UNL1        0.0207
     28 C         142.9451  143.6878  162.6735 C.ar    1  UNL1        0.0985
     29 N         142.3149  142.5518  163.4233 N.ar    1  UNL1       -0.2467
@<TRIPOS>BOND
     1     2     3    2
     2     3     4    1
     3     4     5   ar
     4     5     6   ar
     5     6     7   ar
     6     7     8   ar
     7     8     9   ar
     8     3    10    1
     9    10    11   ar
    10    11    12   ar
    11    12    13   ar
    12    13    14   ar
    13    14    15   ar
    14     3     1    1
    15     1    16    1
    16    16    17    1
    17    17    18   ar
    18    18    19   ar
    19    19    20   ar
    20    20    21   ar
    21    21    22   ar
    22     1    23    1
    23    23    24    1
    24    24    25   ar
    25    25    26   ar
    26    26    27   ar
    27    27    28   ar
    28    28    29   ar
    29     9     4   ar
    30    15    10   ar
    31    22    17   ar
    32    29    24   ar
@<TRIPOS>MOLECULE
*****
 29 32 0 0 0
SMALL
GASTEIGER

@<TRIPOS>ATOM
      1 N         141.6803  141.2360  166.0459 N.3     1  UNL1       -0.2135
      2 O         139.7596  140.0571  168.0260 O.2     1  UNL1       -0.2941
      3 P         140.7199  140.6466  167.0359 P.3     1  UNL1        0.2124
      4 C         140.0872  139.8391  165.9415 C.ar    1  UNL1        0.0466
      5 C         140.6801  138.5198  165.5442 C.ar    1  UNL1        0.0044
      6 C         140.0474  137.7123  164.4498 C.ar    1  UNL1        0.0002
      7 C         138.8218  138.2242  163.7528 C.ar    1  UNL1        0.0000
      8 C         138.2289  139.5435  164.1501 C.ar    1  UNL1        0.0002
      9 C         138.8616  140.3509  165.2445 C.ar    1  UNL1        0.0044
     10 C         141.3526  141.4540  168.1303 C.ar    1  UNL1        0.0466
     11 C         142.7517  141.1471  168.5759 C.ar    1  UNL1        0.0044
     12 C         143.3843  141.9546  169.6703 C.ar    1  UNL1        0.0002
     13 C         142.6180  143.0689  170.3191 C.ar    1  UNL1        0.0000
     14 C         141.2190  143.3759  169.8735 C.ar    1  UNL1        0.0002
     15 C         140.5863  142.5684  168.7791 C.ar    1  UNL1        0.0044
     16 C         142.7109  140.3651  165.3906 C.3     1  UNL1        0.1250
     17 C         143.4605  140.8632  164.1907 C.ar    1  UNL1        0.0756
     18 C         144.8378  141.4355  164.3511 C.ar    1  UNL1        0.0162
     19 C         145.5874  141.9337  163.1513 C.ar    1  UNL1        0.0028
     20 C         144.9599  141.8595  161.7908 C.ar    1  UNL1        0.0207
     21 C         143.5827  141.2872  161.6303 C.ar    1  UNL1        0.0985
     22 N         142.8330  140.7891  162.8303 N.ar    1  UNL1       -0.2467
     23 C         141.6100  142.6965  165.7109 C.3     1  UNL1        0.1250
     24 C         140.4477  143.2314  164.9281 C.ar    1  UNL1        0.0756
     25 C         139.3706  144.0108  165.6226 C.ar    1  UNL1        0.0162
     26 C         138.2083  144.5457  164.8396 C.ar    1  UNL1        0.0028
     27 C         138.1231  144.3012  163.3622 C.ar    1  UNL1        0.0207
     28 C         139.2002  143.5218  162.6676 C.ar    1  UNL1        0.0985
     29 N         140.3625  142.9869  163.4505 N.ar    1  UNL1       -0.2467
@<TRIPOS>BOND
     1     2     3    2
     2     3     4    1
     3     4     5   ar
     4     5     6   ar
     5     6     7   ar
     6     7     8   ar
     7     8     9   ar
     8     3    10    1
     9    10    11   ar
    10    11    12   ar
    11    12    13   ar
    12    13    14   ar
    13    14    15   ar
    14     3     1    1
    15     1    16    1
    16    16    17    1
    17    17    18   ar
    18    18    19   ar
    19    19    20   ar
    20    20    21   ar
    21    21    22   ar
    22     1    23    1
    23    23    24    1
    24    24    25   ar
    25    25    26   ar
    26    26    27   ar
    27    27    28   ar
    28    28    29   ar
    29     9     4   ar
    30    15    10   ar
    31    22    17   ar
    32    29    24   ar
@<TRIPOS>MOLECULE
*****
 29 32 0 0 0
SMALL
GASTEIGER

@<TRIPOS>ATOM
      1 N         141.6971  141.2804  166.0841 N.3     1  UNL1       -0.2135
      2 O         139.7666  140.1082  168.0586 O.2     1  UNL1       -0.2941
      3 P         140.7319  140.6943  167.0713 P.3     1  UNL1        0.2124
      4 C         140.1041  139.8837  165.9764 C.ar    1  UNL1        0.0466
      5 C         140.7459  138.6041  165.5282 C.ar    1  UNL1        0.0044
      6 C         140.1181  137.7936  164.4333 C.ar    1  UNL1        0.0002
      7 C         138.8485  138.2626  163.7866 C.ar    1  UNL1        0.0000
      8 C         138.2068  139.5421  164.2347 C.ar    1  UNL1        0.0002
      9 C         138.8345  140.3526  165.3296 C.ar    1  UNL1        0.0044
     10 C         141.3596  141.5048  168.1663 C.ar    1  UNL1        0.0466
     11 C         140.5880  142.6170  168.8127 C.ar    1  UNL1        0.0044
     12 C         141.2157  143.4276  169.9077 C.ar    1  UNL1        0.0002
     13 C         142.6150  143.1260  170.3562 C.ar    1  UNL1        0.0000
     14 C         143.3865  142.0139  169.7098 C.ar    1  UNL1        0.0002
     15 C         142.7588  141.2033  168.6148 C.ar    1  UNL1        0.0044
     16 C         141.5997  142.7296  165.7097 C.3     1  UNL1        0.1250
     17 C         140.4088  143.2286  164.9463 C.ar    1  UNL1        0.0756
     18 C         139.3483  144.0248  165.6475 C.ar    1  UNL1        0.0162
     19 C         138.1574  144.5238  164.8842 C.ar    1  UNL1        0.0028
     20 C         138.0269  144.2267  163.4197 C.ar    1  UNL1        0.0207
     21 C         139.0873  143.4306  162.7185 C.ar    1  UNL1        0.0985
     22 N         140.2783  142.9315  163.4819 N.ar    1  UNL1       -0.2467
     23 C         142.7599  140.4172  165.4712 C.3     1  UNL1        0.1250
     24 C         143.4808  140.8766  164.2387 C.ar    1  UNL1        0.0756
     25 C         144.8576  141.4616  164.3493 C.ar    1  UNL1        0.0162
     26 C         145.5786  141.9210  163.1167 C.ar    1  UNL1        0.0028
     27 C         144.9227  141.7955  161.7736 C.ar    1  UNL1        0.0207
     28 C         143.5459  141.2105  161.6630 C.ar    1  UNL1        0.0985
     29 N         142.8250  140.7511  162.8955 N.ar    1  UNL1       -0.2467
@<TRIPOS>BOND
     1     2     3    2
     2     3     4    1
     3     4     5   ar
     4     5     6   ar
     5     6     7   ar
     6     7     8   ar
     7     8     9   ar
     8     3    10    1
     9    10    11   ar
    10    11    12   ar
    11    12    13   ar
    12    13    14   ar
    13    14    15   ar
    14     3     1    1
    15     1    16    1
    16    16    17    1
    17    17    18   ar
    18    18    19   ar
    19    19    20   ar
    20    20    21   ar
    21    21    22   ar
    22     1    23    1
    23    23    24    1
    24    24    25   ar
    25    25    26   ar
    26    26    27   ar
    27    27    28   ar
    28    28    29   ar
    29     9     4   ar
    30    15    10   ar
    31    22    17   ar
    32    29    24   ar
@<TRIPOS>MOLECULE
*****
 29 32 0 0 0
SMALL
GASTEIGER

@<TRIPOS>ATOM
      1 N         141.6923  141.2747  166.0686 N.3     1  UNL1       -0.2135
      2 O         139.7667  140.1003  168.0466 O.2     1  UNL1       -0.2941
      3 P         140.7295  140.6875  167.0576 P.3     1  UNL1        0.2124
      4 C         141.3565  141.5009  168.1509 C.ar    1  UNL1        0.0466
      5 C         142.7604  141.2096  168.5915 C.ar    1  UNL1        0.0044
      6 C         143.3873  142.0230  169.6848 C.ar    1  UNL1        0.0002
      7 C         142.6103  143.1277  170.3375 C.ar    1  UNL1        0.0000
      8 C         141.2064  143.4189  169.8969 C.ar    1  UNL1        0.0002
      9 C         140.5795  142.6055  168.8036 C.ar    1  UNL1        0.0044
     10 C         140.1025  139.8741  165.9643 C.ar    1  UNL1        0.0466
     11 C         138.8410  140.3484  165.3058 C.ar    1  UNL1        0.0044
     12 C         138.2140  139.5350  164.2126 C.ar    1  UNL1        0.0002
     13 C         138.8485  138.2473  163.7778 C.ar    1  UNL1        0.0000
     14 C         140.1100  137.7729  164.4362 C.ar    1  UNL1        0.0002
     15 C         140.7370  138.5863  165.5295 C.ar    1  UNL1        0.0044
     16 C         141.5942  142.7244  165.6963 C.3     1  UNL1        0.1250
     17 C         140.4089  143.2216  164.9230 C.ar    1  UNL1        0.0756
     18 C         139.3365  144.0077  165.6172 C.ar    1  UNL1        0.0162
     19 C         138.1513  144.5049  164.8440 C.ar    1  UNL1        0.0028
     20 C         138.0384  144.2160  163.3763 C.ar    1  UNL1        0.0207
     21 C         139.1108  143.4300  162.6820 C.ar    1  UNL1        0.0985
     22 N         140.2961  142.9328  163.4554 N.ar    1  UNL1       -0.2467
     23 C         142.7532  140.4121  165.4517 C.3     1  UNL1        0.1250
     24 C         143.4787  140.8779  164.2243 C.ar    1  UNL1        0.0756
     25 C         144.8541  141.4645  164.3434 C.ar    1  UNL1        0.0162
     26 C         145.5797  141.9304  163.1159 C.ar    1  UNL1        0.0028
     27 C         144.9298  141.8096  161.7694 C.ar    1  UNL1        0.0207
     28 C         143.5544  141.2230  161.6503 C.ar    1  UNL1        0.0985
     29 N         142.8289  140.7572  162.8778 N.ar    1  UNL1       -0.2467
@<TRIPOS>BOND
     1     2     3    2
     2     3     4    1
     3     4     5   ar
     4     5     6   ar
     5     6     7   ar
     6     7     8   ar
     7     8     9   ar
     8     3    10    1
     9    10    11   ar
    10    11    12   ar
    11    12    13   ar
    12    13    14   ar
    13    14    15   ar
    14     3     1    1
    15     1    16    1
    16    16    17    1
    17    17    18   ar
    18    18    19   ar
    19    19    20   ar
    20    20    21   ar
    21    21    22   ar
    22     1    23    1
    23    23    24    1
    24    24    25   ar
    25    25    26   ar
    26    26    27   ar
    27    27    28   ar
    28    28    29   ar
    29     9     4   ar
    30    15    10   ar
    31    22    17   ar
    32    29    24   ar
@<TRIPOS>MOLECULE
*****
 29 32 0 0 0
SMALL
GASTEIGER

@<TRIPOS>ATOM
      1 N         141.7086  141.2624  166.0802 N.3     1  UNL1       -0.2135
      2 O         139.7864  140.0804  168.0570 O.2     1  UNL1       -0.2941
      3 P         140.7475  140.6714  167.0686 P.3     1  UNL1        0.2124
      4 C         141.3735  141.4839  168.1632 C.ar    1  UNL1        0.0466
      5 C         142.7713  141.1818  168.6158 C.ar    1  UNL1        0.0044
      6 C         143.3972  141.9942  169.7104 C.ar    1  UNL1        0.0002
      7 C         142.6254  143.1087  170.3523 C.ar    1  UNL1        0.0000
      8 C         141.2276  143.4108  169.8997 C.ar    1  UNL1        0.0002
      9 C         140.6017  142.5984  168.8051 C.ar    1  UNL1        0.0044
     10 C         140.1215  139.8590  165.9741 C.ar    1  UNL1        0.0466
     11 C         138.8624  140.3357  165.3125 C.ar    1  UNL1        0.0044
     12 C         138.2364  139.5232  164.2179 C.ar    1  UNL1        0.0002
     13 C         138.8694  138.2341  163.7850 C.ar    1  UNL1        0.0000
     14 C         140.1284  137.7574  164.4465 C.ar    1  UNL1        0.0002
     15 C         140.7544  138.5698  165.5411 C.ar    1  UNL1        0.0044
     16 C         142.7681  140.4022  165.4578 C.3     1  UNL1        0.1250
     17 C         143.4842  140.8683  164.2249 C.ar    1  UNL1        0.0756
     18 C         144.8659  141.4422  164.3319 C.ar    1  UNL1        0.0162
     19 C         145.5820  141.9083  163.0991 C.ar    1  UNL1        0.0028
     20 C         144.9163  141.8007  161.7592 C.ar    1  UNL1        0.0207
     21 C         143.5346  141.2268  161.6522 C.ar    1  UNL1        0.0985
     22 N         142.8185  140.7607  162.8851 N.ar    1  UNL1       -0.2467
     23 C         141.6102  142.7138  165.7141 C.3     1  UNL1        0.1250
     24 C         140.4282  143.2128  164.9370 C.ar    1  UNL1        0.0756
     25 C         139.3502  143.9926  165.6298 C.ar    1  UNL1        0.0162
     26 C         138.1682  144.4916  164.8526 C.ar    1  UNL1        0.0028
     27 C         138.0642  144.2108  163.3828 C.ar    1  UNL1        0.0207
     28 C         139.1422  143.4311  162.6901 C.ar    1  UNL1        0.0985
     29 N         140.3242  142.9320  163.4672 N.ar    1  UNL1       -0.2467
@<TRIPOS>BOND
     1     2     3    2
     2     3     4    1
     3     4     5   ar
     4     5     6   ar
     5     6     7   ar
     6     7     8   ar
     7     8     9   ar
     8     3    10    1
     9    10    11   ar
    10    11    12   ar
    11    12    13   ar
    12    13    14   ar
    13    14    15   ar
    14     3     1    1
    15     1    16    1
    16    16    17    1
    17    17    18   ar
    18    18    19   ar
    19    19    20   ar
    20    20    21   ar
    21    21    22   ar
    22     1    23    1
    23    23    24    1
    24    24    25   ar
    25    25    26   ar
    26    26    27   ar
    27    27    28   ar
    28    28    29   ar
    29     9     4   ar
    30    15    10   ar
    31    22    17   ar
    32    29    24   ar
@<TRIPOS>MOLECULE
*****
 29 32 0 0 0
SMALL
GASTEIGER

@<TRIPOS>ATOM
      1 N         141.3077  140.4520  166.4192 N.3     1  UNL1       -0.2135
      2 O         138.8319  139.3900  167.7391 O.2     1  UNL1       -0.2941
      3 P         140.0698  139.9210  167.0791 P.3     1  UNL1        0.2124
      4 C         140.6100  140.3261  168.4186 C.ar    1  UNL1        0.0466
      5 C         139.9128  141.3857  169.2193 C.ar    1  UNL1        0.0044
      6 C         140.4530  141.7907  170.5587 C.ar    1  UNL1        0.0002
      7 C         141.6905  141.1362  171.0974 C.ar    1  UNL1        0.0000
      8 C         142.3878  140.0767  170.2967 C.ar    1  UNL1        0.0002
      9 C         141.8475  139.6716  168.9573 C.ar    1  UNL1        0.0044
     10 C         139.5295  139.5159  165.7398 C.ar    1  UNL1        0.0466
     11 C         139.7623  138.1258  165.2263 C.ar    1  UNL1        0.0044
     12 C         139.2221  137.7207  163.8870 C.ar    1  UNL1        0.0002
     13 C         138.4490  138.7056  163.0610 C.ar    1  UNL1        0.0000
     14 C         138.2161  140.0956  163.5743 C.ar    1  UNL1        0.0002
     15 C         138.7564  140.5008  164.9138 C.ar    1  UNL1        0.0044
     16 C         142.2366  139.5162  165.7041 C.3     1  UNL1        0.1250
     17 C         142.9677  139.9768  164.4778 C.ar    1  UNL1        0.0756
     18 C         142.2935  139.9247  163.1389 C.ar    1  UNL1        0.0162
     19 C         143.0245  140.3852  161.9127 C.ar    1  UNL1        0.0028
     20 C         144.4296  140.8980  162.0255 C.ar    1  UNL1        0.0207
     21 C         145.1038  140.9501  163.3644 C.ar    1  UNL1        0.0985
     22 N         144.3728  140.4895  164.5906 N.ar    1  UNL1       -0.2467
     23 C         141.6167  141.9188  166.4744 C.3     1  UNL1        0.1250
     24 C         140.8406  142.8813  165.6251 C.ar    1  UNL1        0.0756
     25 C         139.7018  143.6561  166.2192 C.ar    1  UNL1        0.0162
     26 C         138.9257  144.6185  165.3698 C.ar    1  UNL1        0.0028
     27 C         139.2883  144.8062  163.9265 C.ar    1  UNL1        0.0207
     28 C         140.4270  144.0314  163.3324 C.ar    1  UNL1        0.0985
     29 N         141.2032  143.0689  164.1817 N.ar    1  UNL1       -0.2467
@<TRIPOS>BOND
     1     2     3    2
     2     3     4    1
     3     4     5   ar
     4     5     6   ar
     5     6     7   ar
     6     7     8   ar
     7     8     9   ar
     8     3    10    1
     9    10    11   ar
    10    11    12   ar
    11    12    13   ar
    12    13    14   ar
    13    14    15   ar
    14     3     1    1
    15     1    16    1
    16    16    17    1
    17    17    18   ar
    18    18    19   ar
    19    19    20   ar
    20    20    21   ar
    21    21    22   ar
    22     1    23    1
    23    23    24    1
    24    24    25   ar
    25    25    26   ar
    26    26    27   ar
    27    27    28   ar
    28    28    29   ar
    29     9     4   ar
    30    15    10   ar
    31    22    17   ar
    32    29    24   ar
