@<TRIPOS>MOLECULE
*****
 45 48 0 0 0
SMALL
GASTEIGER

@<TRIPOS>ATOM
      1 C         142.1717  141.5901  162.9686 C.3     1  UNL1        0.0779
      2 C         142.4530  141.7837  164.4293 C.ar    1  UNL1        0.0373
      3 C         141.6219  141.0701  165.4540 C.ar    1  UNL1        0.0023
      4 C         141.9032  141.2636  166.9146 C.ar    1  UNL1        0.0181
      5 C         141.0722  140.5500  167.9394 C.ar    1  UNL1        0.0082
      6 C         141.3535  140.7435  169.4001 C.ar    1  UNL1        0.0347
      7 BR        140.5224  140.0300  170.4249 Br      1  UNL1       -0.0490
      8 C         142.4657  141.6506  169.8359 C.ar    1  UNL1        0.0082
      9 C         143.2968  142.3642  168.8111 C.ar    1  UNL1        0.0197
     10 C         143.0155  142.1707  167.3505 C.ar    1  UNL1        0.0844
     11 N         143.8465  142.8843  166.3258 N.ar    1  UNL1       -0.2119
     12 C         143.5653  142.6908  164.8651 C.ar    1  UNL1        0.2211
     13 O         144.3963  143.4043  163.8403 O.3     1  UNL1       -0.4563
     14 C         143.9200  144.8267  163.8394 C.3     1  UNL1        0.2542
     15 C         141.4599  142.6592  162.1938 C.ar    1  UNL1       -0.0064
     16 C         142.1122  143.2741  160.9911 C.ar    1  UNL1        0.0540
     17 C         141.4004  144.3432  160.2163 C.ar    1  UNL1        0.2272
     18 N         140.0363  144.7975  160.6442 N.ar    1  UNL1       -0.1767
     19 C         139.3841  144.1826  161.8469 C.ar    1  UNL1        0.2272
     20 C         140.0959  143.1135  162.6217 C.ar    1  UNL1        0.0540
     21 O         142.0527  144.9581  159.0136 O.3     1  UNL1       -0.4561
     22 C         142.5165  144.0866  157.8842 C.3     1  UNL1        0.2542
     23 O         138.0201  144.6368  162.2748 O.3     1  UNL1       -0.4561
     24 C         137.4740  144.2180  163.6075 C.3     1  UNL1        0.2542
     25 C         142.6022  140.3274  162.2828 C.3     1  UNL1        0.1161
     26 O         144.0303  140.7823  162.3419 O.3     1  UNL1       -0.3820
     27 H         144.6007  140.1105  161.9365 H       1  UNL1        0.2107
     28 C         139.0960  138.8268  163.3804 C.ar    1  UNL1        0.2271
     29 C         140.5242  139.2816  163.4396 C.ar    1  UNL1        0.0559
     30 C         141.1740  139.8726  162.2237 C.ar    1  UNL1        0.0117
     31 C         140.3957  140.0088  160.9487 C.ar    1  UNL1        0.0559
     32 C         138.9675  139.5540  160.8896 C.ar    1  UNL1        0.2270
     33 N         138.3177  138.9630  162.1055 N.ar    1  UNL1       -0.1767
     34 O         138.4462  138.2357  164.5964 O.3     1  UNL1       -0.4602
     35 C         137.6502  138.4664  167.0587 C.3     1  UNL1        0.0512
     36 C         138.2927  139.0600  165.8402 C.3     1  UNL1        0.2072
     37 O         138.1892  139.6903  159.6146 O.3     1  UNL1       -0.4640
     38 C         138.6498  140.6448  158.5531 C.3     1  UNL1        0.1678
     39 C         138.4126  142.1171  158.7142 C.3     1  UNL1        0.0473
     40 C         139.3476  140.1269  157.3304 C.3     1  UNL1        0.0473
     41 C         143.0327  139.0648  161.5970 C.3     1  UNL1        0.0491
     42 C         144.0512  139.1185  160.4971 C.3     1  UNL1        0.0750
     43 N         143.6171  139.3782  159.0850 N.3     1  UNL1       -0.2702
     44 C         142.7609  138.3773  158.3674 C.3     1  UNL1        0.0897
     45 C         144.0392  140.6390  158.3904 C.3     1  UNL1        0.0897
@<TRIPOS>BOND
     1    35    36    1
     2    36    34    1
     3    34    28    1
     4    28    29   ar
     5    29    30   ar
     6    30    25    1
     7    25    26    1
     8    25    41    1
     9    41    42    1
    10    42    43    1
    11    43    44    1
    12    43    45    1
    13    25     1    1
    14     1    15    1
    15    15    16   ar
    16    16    17   ar
    17    17    21    1
    18    21    22    1
    19    17    18   ar
    20    18    19   ar
    21    19    23    1
    22    23    24    1
    23    19    20   ar
    24     1     2    1
    25     2     3   ar
    26     3     4   ar
    27     4     5   ar
    28     5     6   ar
    29     6     7    1
    30     6     8   ar
    31     8     9   ar
    32     9    10   ar
    33    10    11   ar
    34    11    12   ar
    35    12    13    1
    36    13    14    1
    37    30    31   ar
    38    31    32   ar
    39    32    37    1
    40    37    38    1
    41    38    39    1
    42    38    40    1
    43    32    33   ar
    44    33    28   ar
    45    20    15   ar
    46    12     2   ar
    47    10     4   ar
    48    26    27    1
@<TRIPOS>MOLECULE
*****
 45 48 0 0 0
SMALL
GASTEIGER

@<TRIPOS>ATOM
      1 C         142.0709  141.3188  162.7544 C.3     1  UNL1        0.0779
      2 C         142.3890  141.5758  164.1976 C.ar    1  UNL1        0.0373
      3 C         141.6141  140.8736  165.2730 C.ar    1  UNL1        0.0023
      4 C         141.9322  141.1306  166.7162 C.ar    1  UNL1        0.0181
      5 C         141.1573  140.4284  167.7915 C.ar    1  UNL1        0.0082
      6 C         141.4754  140.6855  169.2348 C.ar    1  UNL1        0.0347
      7 BR        140.7005  139.9833  170.3101 Br      1  UNL1       -0.0490
      8 C         142.5684  141.6446  169.6025 C.ar    1  UNL1        0.0082
      9 C         143.3433  142.3468  168.5272 C.ar    1  UNL1        0.0197
     10 C         143.0252  142.0899  167.0840 C.ar    1  UNL1        0.0844
     11 N         143.8001  142.7920  166.0086 N.ar    1  UNL1       -0.2119
     12 C         143.4820  142.5350  164.5654 C.ar    1  UNL1        0.2211
     13 O         144.2569  143.2372  163.4900 O.3     1  UNL1       -0.4563
     14 C         143.7506  144.6490  163.4705 C.3     1  UNL1        0.2542
     15 C         141.2621  142.3137  161.9760 C.ar    1  UNL1       -0.0064
     16 C         139.9987  142.8738  162.5593 C.ar    1  UNL1        0.0540
     17 C         139.1899  143.8686  161.7809 C.ar    1  UNL1        0.2272
     18 N         139.6444  144.3035  160.4191 N.ar    1  UNL1       -0.1767
     19 C         140.9077  143.7434  159.8358 C.ar    1  UNL1        0.2272
     20 C         141.7166  142.7484  160.6143 C.ar    1  UNL1        0.0540
     21 O         137.9265  144.4287  162.3642 O.3     1  UNL1       -0.4561
     22 C         137.6156  144.2229  163.8172 C.3     1  UNL1        0.2542
     23 O         141.3623  144.1781  158.4741 O.3     1  UNL1       -0.4561
     24 C         141.7295  145.6115  158.2282 C.3     1  UNL1        0.2542
     25 C         142.5616  140.0669  162.0897 C.3     1  UNL1        0.1161
     26 O         143.9593  140.6114  162.0959 O.3     1  UNL1       -0.3820
     27 H         144.5597  139.9655  161.6920 H       1  UNL1        0.2107
     28 C         139.2385  138.2528  163.2795 C.ar    1  UNL1        0.2271
     29 C         140.6362  138.7973  163.2858 C.ar    1  UNL1        0.0559
     30 C         141.1640  139.5223  162.0834 C.ar    1  UNL1        0.0117
     31 C         140.2941  139.7028  160.8748 C.ar    1  UNL1        0.0559
     32 C         138.8965  139.1582  160.8686 C.ar    1  UNL1        0.2270
     33 N         138.3687  138.4332  162.0709 N.ar    1  UNL1       -0.1767
     34 O         138.7107  137.5277  164.4820 O.3     1  UNL1       -0.4602
     35 C         138.1202  139.7294  165.7285 C.3     1  UNL1        0.0512
     36 C         138.4739  138.2721  165.7625 C.3     1  UNL1        0.2072
     37 O         138.0267  139.3388  159.6599 O.3     1  UNL1       -0.4640
     38 C         138.4821  140.2171  158.5325 C.3     1  UNL1        0.1678
     39 C         139.2270  139.6241  157.3735 C.3     1  UNL1        0.0473
     40 C         138.1927  141.6887  158.5642 C.3     1  UNL1        0.0473
     41 C         143.0524  138.8150  161.4250 C.3     1  UNL1        0.0491
     42 C         144.0502  138.9004  160.3082 C.3     1  UNL1        0.0750
     43 N         143.6221  139.3877  158.9557 N.3     1  UNL1       -0.2702
     44 C         144.0623  140.7372  158.4707 C.3     1  UNL1        0.0897
     45 C         142.7538  138.5255  158.0881 C.3     1  UNL1        0.0897
@<TRIPOS>BOND
     1    35    36    1
     2    36    34    1
     3    34    28    1
     4    28    29   ar
     5    29    30   ar
     6    30    25    1
     7    25    26    1
     8    25    41    1
     9    41    42    1
    10    42    43    1
    11    43    44    1
    12    43    45    1
    13    25     1    1
    14     1    15    1
    15    15    16   ar
    16    16    17   ar
    17    17    21    1
    18    21    22    1
    19    17    18   ar
    20    18    19   ar
    21    19    23    1
    22    23    24    1
    23    19    20   ar
    24     1     2    1
    25     2     3   ar
    26     3     4   ar
    27     4     5   ar
    28     5     6   ar
    29     6     7    1
    30     6     8   ar
    31     8     9   ar
    32     9    10   ar
    33    10    11   ar
    34    11    12   ar
    35    12    13    1
    36    13    14    1
    37    30    31   ar
    38    31    32   ar
    39    32    37    1
    40    37    38    1
    41    38    39    1
    42    38    40    1
    43    32    33   ar
    44    33    28   ar
    45    20    15   ar
    46    12     2   ar
    47    10     4   ar
    48    26    27    1
@<TRIPOS>MOLECULE
*****
 45 48 0 0 0
SMALL
GASTEIGER

@<TRIPOS>ATOM
      1 C         141.3753  142.3361  162.3957 C.3     1  UNL1        0.0779
      2 C         141.8649  142.3022  163.8132 C.ar    1  UNL1        0.0373
      3 C         141.0493  141.6217  164.8722 C.ar    1  UNL1        0.0023
      4 C         141.5389  141.5877  166.2897 C.ar    1  UNL1        0.0181
      5 C         140.7233  140.9072  167.3488 C.ar    1  UNL1        0.0082
      6 C         141.2129  140.8733  168.7663 C.ar    1  UNL1        0.0347
      7 BR        140.3973  140.1928  169.8253 Br      1  UNL1       -0.0490
      8 C         142.5180  141.5199  169.1246 C.ar    1  UNL1        0.0082
      9 C         143.3336  142.2005  168.0655 C.ar    1  UNL1        0.0197
     10 C         142.8441  142.2344  166.6481 C.ar    1  UNL1        0.0844
     11 N         143.6597  142.9149  165.5890 N.ar    1  UNL1       -0.2119
     12 C         143.1701  142.9488  164.1715 C.ar    1  UNL1        0.2211
     13 O         143.9857  143.6293  163.1124 O.3     1  UNL1       -0.4563
     14 C         143.7669  145.1009  163.3040 C.3     1  UNL1        0.2542
     15 C         142.2637  141.8623  161.2838 C.ar    1  UNL1       -0.0064
     16 C         142.5680  142.7695  160.1286 C.ar    1  UNL1        0.0540
     17 C         143.4564  142.2957  159.0167 C.ar    1  UNL1        0.2272
     18 N         144.0406  140.9148  159.0601 N.ar    1  UNL1       -0.1767
     19 C         143.7363  140.0076  160.2153 C.ar    1  UNL1        0.2272
     20 C         142.8478  140.4815  161.3272 C.ar    1  UNL1        0.0540
     21 O         143.7607  143.2029  157.8615 O.3     1  UNL1       -0.4561
     22 C         143.5523  142.7227  156.4557 C.3     1  UNL1        0.2542
     23 O         144.3204  138.6268  160.2586 O.3     1  UNL1       -0.4561
     24 C         143.9573  137.6936  161.3755 C.3     1  UNL1        0.2542
     25 C         139.9973  142.8437  162.0901 C.3     1  UNL1        0.1161
     26 O         140.4016  144.2148  162.5447 O.3     1  UNL1       -0.3820
     27 H         139.6486  144.8199  162.4564 H       1  UNL1        0.2107
     28 C         138.9390  139.8372  159.7257 C.ar    1  UNL1        0.2271
     29 C         139.3433  141.2082  160.1803 C.ar    1  UNL1        0.0559
     30 C         139.5930  141.4727  161.6355 C.ar    1  UNL1        0.0117
     31 C         139.4384  140.3660  162.6362 C.ar    1  UNL1        0.0559
     32 C         139.0340  138.9949  162.1816 C.ar    1  UNL1        0.2270
     33 N         138.7844  138.7305  160.7264 N.ar    1  UNL1       -0.1767
     34 O         138.6894  139.5728  158.2704 O.3     1  UNL1       -0.4602
     35 C         137.1040  141.2130  157.0269 C.3     1  UNL1        0.0512
     36 C         138.4888  140.7188  157.3236 C.3     1  UNL1        0.2072
     37 O         138.8794  137.8882  163.1823 O.3     1  UNL1       -0.4640
     38 C         139.4202  138.0525  164.5718 C.3     1  UNL1        0.1678
     39 C         138.4996  138.4260  165.6955 C.3     1  UNL1        0.0473
     40 C         140.8816  137.8433  164.8374 C.3     1  UNL1        0.0473
     41 C         138.6193  143.3514  161.7846 C.3     1  UNL1        0.0491
     42 C         137.8672  144.1444  162.8120 C.3     1  UNL1        0.0750
     43 N         137.9775  143.7858  164.2644 N.3     1  UNL1       -0.2702
     44 C         138.4727  144.8004  165.2519 C.3     1  UNL1        0.0897
     45 C         137.5925  142.4125  164.7292 C.3     1  UNL1        0.0897
@<TRIPOS>BOND
     1    35    36    1
     2    36    34    1
     3    34    28    1
     4    28    29   ar
     5    29    30   ar
     6    30    25    1
     7    25    26    1
     8    25    41    1
     9    41    42    1
    10    42    43    1
    11    43    44    1
    12    43    45    1
    13    25     1    1
    14     1    15    1
    15    15    16   ar
    16    16    17   ar
    17    17    21    1
    18    21    22    1
    19    17    18   ar
    20    18    19   ar
    21    19    23    1
    22    23    24    1
    23    19    20   ar
    24     1     2    1
    25     2     3   ar
    26     3     4   ar
    27     4     5   ar
    28     5     6   ar
    29     6     7    1
    30     6     8   ar
    31     8     9   ar
    32     9    10   ar
    33    10    11   ar
    34    11    12   ar
    35    12    13    1
    36    13    14    1
    37    30    31   ar
    38    31    32   ar
    39    32    37    1
    40    37    38    1
    41    38    39    1
    42    38    40    1
    43    32    33   ar
    44    33    28   ar
    45    20    15   ar
    46    12     2   ar
    47    10     4   ar
    48    26    27    1
@<TRIPOS>MOLECULE
*****
 45 48 0 0 0
SMALL
GASTEIGER

@<TRIPOS>ATOM
      1 C         141.9790  141.2481  162.3344 C.3     1  UNL1        0.0779
      2 C         142.2358  141.5658  163.7777 C.ar    1  UNL1        0.0373
      3 C         141.1993  141.2425  164.8128 C.ar    1  UNL1        0.0023
      4 C         141.4561  141.5602  166.2560 C.ar    1  UNL1        0.0181
      5 C         140.4196  141.2369  167.2910 C.ar    1  UNL1        0.0082
      6 C         140.6764  141.5546  168.7344 C.ar    1  UNL1        0.0347
      7 BR        139.6400  141.2313  169.7694 Br      1  UNL1       -0.0490
      8 C         141.9697  142.1955  169.1427 C.ar    1  UNL1        0.0082
      9 C         143.0061  142.5188  168.1077 C.ar    1  UNL1        0.0197
     10 C         142.7494  142.2011  166.6644 C.ar    1  UNL1        0.0844
     11 N         143.7858  142.5244  165.6294 N.ar    1  UNL1       -0.2119
     12 C         143.5290  142.2067  164.1860 C.ar    1  UNL1        0.2211
     13 O         144.5655  142.5300  163.1510 O.3     1  UNL1       -0.4563
     14 C         145.7289  141.6268  163.4349 C.3     1  UNL1        0.2542
     15 C         142.0197  142.3405  161.3073 C.ar    1  UNL1       -0.0064
     16 C         141.1813  143.5712  161.4876 C.ar    1  UNL1        0.0540
     17 C         141.2220  144.6636  160.4605 C.ar    1  UNL1        0.2272
     18 N         142.1011  144.5253  159.2529 N.ar    1  UNL1       -0.1767
     19 C         142.9395  143.2946  159.0726 C.ar    1  UNL1        0.2272
     20 C         142.8988  142.2022  160.0998 C.ar    1  UNL1        0.0540
     21 O         140.3836  145.8942  160.6408 O.3     1  UNL1       -0.4561
     22 C         139.7370  146.1738  161.9651 C.3     1  UNL1        0.2542
     23 O         143.8186  143.1562  157.8651 O.3     1  UNL1       -0.4561
     24 C         145.1086  142.3967  157.9597 C.3     1  UNL1        0.2542
     25 C         141.6814  139.8381  161.9182 C.3     1  UNL1        0.1161
     26 O         143.0709  139.4296  162.3089 O.3     1  UNL1       -0.3820
     27 H         143.1890  138.4818  162.1394 H       1  UNL1        0.2107
     28 C         137.9862  141.2660  162.1551 C.ar    1  UNL1        0.2271
     29 C         139.3756  140.8575  162.5458 C.ar    1  UNL1        0.0559
     30 C         140.2920  140.2465  161.5276 C.ar    1  UNL1        0.0117
     31 C         139.8190  140.0440  160.1186 C.ar    1  UNL1        0.0559
     32 C         138.4295  140.4525  159.7279 C.ar    1  UNL1        0.2270
     33 N         137.5132  141.0635  160.7462 N.ar    1  UNL1       -0.1767
     34 O         137.0698  141.8770  163.1735 O.3     1  UNL1       -0.4602
     35 C         138.2171  143.8037  164.4854 C.3     1  UNL1        0.0512
     36 C         137.6291  142.4242  164.4532 C.3     1  UNL1        0.2072
     37 O         137.9565  140.2500  158.3189 O.3     1  UNL1       -0.4640
     38 C         137.6362  141.4355  157.4576 C.3     1  UNL1        0.1678
     39 C         138.4192  142.7060  157.6090 C.3     1  UNL1        0.0473
     40 C         136.5329  141.3506  156.4448 C.3     1  UNL1        0.0473
     41 C         141.3839  138.4280  161.5021 C.3     1  UNL1        0.0491
     42 C         141.3664  137.3317  162.5259 C.3     1  UNL1        0.0750
     43 N         140.9036  137.6182  163.9236 N.3     1  UNL1       -0.2702
     44 C         141.9066  137.7850  165.0264 C.3     1  UNL1        0.0897
     45 C         139.4377  137.7380  164.2186 C.3     1  UNL1        0.0897
@<TRIPOS>BOND
     1    35    36    1
     2    36    34    1
     3    34    28    1
     4    28    29   ar
     5    29    30   ar
     6    30    25    1
     7    25    26    1
     8    25    41    1
     9    41    42    1
    10    42    43    1
    11    43    44    1
    12    43    45    1
    13    25     1    1
    14     1    15    1
    15    15    16   ar
    16    16    17   ar
    17    17    21    1
    18    21    22    1
    19    17    18   ar
    20    18    19   ar
    21    19    23    1
    22    23    24    1
    23    19    20   ar
    24     1     2    1
    25     2     3   ar
    26     3     4   ar
    27     4     5   ar
    28     5     6   ar
    29     6     7    1
    30     6     8   ar
    31     8     9   ar
    32     9    10   ar
    33    10    11   ar
    34    11    12   ar
    35    12    13    1
    36    13    14    1
    37    30    31   ar
    38    31    32   ar
    39    32    37    1
    40    37    38    1
    41    38    39    1
    42    38    40    1
    43    32    33   ar
    44    33    28   ar
    45    20    15   ar
    46    12     2   ar
    47    10     4   ar
    48    26    27    1
@<TRIPOS>MOLECULE
*****
 45 48 0 0 0
SMALL
GASTEIGER

@<TRIPOS>ATOM
      1 C         141.3881  142.4402  162.4269 C.3     1  UNL1        0.0779
      2 C         141.8697  142.3765  163.8461 C.ar    1  UNL1        0.0373
      3 C         141.0244  141.7185  164.8962 C.ar    1  UNL1        0.0023
      4 C         141.5060  141.6548  166.3153 C.ar    1  UNL1        0.0181
      5 C         140.6607  140.9968  167.3653 C.ar    1  UNL1        0.0082
      6 C         141.1424  140.9331  168.7845 C.ar    1  UNL1        0.0347
      7 BR        140.2971  140.2751  169.8346 Br      1  UNL1       -0.0490
      8 C         142.4692  141.5273  169.1536 C.ar    1  UNL1        0.0082
      9 C         143.3145  142.1853  168.1036 C.ar    1  UNL1        0.0197
     10 C         142.8329  142.2490  166.6845 C.ar    1  UNL1        0.0844
     11 N         143.6782  142.9070  165.6344 N.ar    1  UNL1       -0.2119
     12 C         143.1966  142.9707  164.2152 C.ar    1  UNL1        0.2211
     13 O         144.0419  143.6287  163.1652 O.3     1  UNL1       -0.4563
     14 C         143.8183  145.1039  163.3191 C.3     1  UNL1        0.2542
     15 C         142.2607  141.9370  161.3155 C.ar    1  UNL1       -0.0064
     16 C         142.8778  140.5728  161.4054 C.ar    1  UNL1        0.0540
     17 C         143.7504  140.0697  160.2940 C.ar    1  UNL1        0.2272
     18 N         144.0059  140.9307  159.0925 N.ar    1  UNL1       -0.1767
     19 C         143.3887  142.2949  159.0026 C.ar    1  UNL1        0.2272
     20 C         142.5161  142.7981  160.1141 C.ar    1  UNL1        0.0540
     21 O         144.3676  138.7055  160.3839 O.3     1  UNL1       -0.4561
     22 C         143.6674  137.6137  161.1375 C.3     1  UNL1        0.2542
     23 O         143.6441  143.1559  157.8012 O.3     1  UNL1       -0.4561
     24 C         142.5249  143.9505  157.1964 C.3     1  UNL1        0.2542
     25 C         140.0338  143.0071  162.1193 C.3     1  UNL1        0.1161
     26 O         140.4993  144.3613  162.5659 O.3     1  UNL1       -0.3820
     27 H         139.7739  144.9989  162.4746 H       1  UNL1        0.2107
     28 C         138.8219  140.0431  159.7750 C.ar    1  UNL1        0.2271
     29 C         139.2873  141.3973  160.2216 C.ar    1  UNL1        0.0559
     30 C         139.5684  141.6529  161.6727 C.ar    1  UNL1        0.0117
     31 C         139.3841  140.5542  162.6772 C.ar    1  UNL1        0.0559
     32 C         138.9186  139.2000  162.2306 C.ar    1  UNL1        0.2270
     33 N         138.6375  138.9444  160.7795 N.ar    1  UNL1       -0.1767
     34 O         138.5408  139.7875  158.3239 O.3     1  UNL1       -0.4602
     35 C         136.8368  141.0618  156.8331 C.3     1  UNL1        0.0512
     36 C         138.2152  140.9317  157.4102 C.3     1  UNL1        0.2072
     37 O         138.7343  138.1014  163.2351 O.3     1  UNL1       -0.4640
     38 C         139.2926  138.2495  164.6194 C.3     1  UNL1        0.1678
     39 C         140.7423  137.9640  164.8780 C.3     1  UNL1        0.0473
     40 C         138.4011  138.6830  165.7453 C.3     1  UNL1        0.0473
     41 C         138.6796  143.5740  161.8116 C.3     1  UNL1        0.0491
     42 C         137.9318  144.3417  162.8612 C.3     1  UNL1        0.0750
     43 N         138.0163  143.9234  164.2992 N.3     1  UNL1       -0.2702
     44 C         138.5870  144.8617  165.3209 C.3     1  UNL1        0.0897
     45 C         137.5301  142.5668  164.7155 C.3     1  UNL1        0.0897
@<TRIPOS>BOND
     1    35    36    1
     2    36    34    1
     3    34    28    1
     4    28    29   ar
     5    29    30   ar
     6    30    25    1
     7    25    26    1
     8    25    41    1
     9    41    42    1
    10    42    43    1
    11    43    44    1
    12    43    45    1
    13    25     1    1
    14     1    15    1
    15    15    16   ar
    16    16    17   ar
    17    17    21    1
    18    21    22    1
    19    17    18   ar
    20    18    19   ar
    21    19    23    1
    22    23    24    1
    23    19    20   ar
    24     1     2    1
    25     2     3   ar
    26     3     4   ar
    27     4     5   ar
    28     5     6   ar
    29     6     7    1
    30     6     8   ar
    31     8     9   ar
    32     9    10   ar
    33    10    11   ar
    34    11    12   ar
    35    12    13    1
    36    13    14    1
    37    30    31   ar
    38    31    32   ar
    39    32    37    1
    40    37    38    1
    41    38    39    1
    42    38    40    1
    43    32    33   ar
    44    33    28   ar
    45    20    15   ar
    46    12     2   ar
    47    10     4   ar
    48    26    27    1
@<TRIPOS>MOLECULE
*****
 45 48 0 0 0
SMALL
GASTEIGER

@<TRIPOS>ATOM
      1 C         140.0920  141.4311  161.8615 C.3     1  UNL1        0.0779
      2 C         139.8944  141.0483  163.2983 C.ar    1  UNL1        0.0373
      3 C         140.7259  141.6931  164.3674 C.ar    1  UNL1        0.0023
      4 C         140.5283  141.3103  165.8042 C.ar    1  UNL1        0.0181
      5 C         141.3598  141.9550  166.8733 C.ar    1  UNL1        0.0082
      6 C         141.1622  141.5722  168.3101 C.ar    1  UNL1        0.0347
      7 BR        141.9936  142.2170  169.3792 Br      1  UNL1       -0.0490
      8 C         140.1332  140.5446  168.6778 C.ar    1  UNL1        0.0082
      9 C         139.3017  139.8999  167.6087 C.ar    1  UNL1        0.0197
     10 C         139.4993  140.2827  166.1720 C.ar    1  UNL1        0.0844
     11 N         138.6678  139.6379  165.1029 N.ar    1  UNL1       -0.2119
     12 C         138.8654  140.0207  163.6660 C.ar    1  UNL1        0.2211
     13 O         138.0340  139.3760  162.5969 O.3     1  UNL1       -0.4563
     14 C         138.4210  137.9268  162.5899 C.3     1  UNL1        0.2542
     15 C         140.3787  140.3743  160.8363 C.ar    1  UNL1       -0.0064
     16 C         139.5171  140.2623  159.6135 C.ar    1  UNL1        0.0540
     17 C         139.8038  139.2055  158.5884 C.ar    1  UNL1        0.2272
     18 N         140.9520  138.2607  158.7860 N.ar    1  UNL1       -0.1767
     19 C         141.8136  138.3727  160.0088 C.ar    1  UNL1        0.2272
     20 C         141.5269  139.4296  161.0340 C.ar    1  UNL1        0.0540
     21 O         138.9423  139.0934  157.3656 O.3     1  UNL1       -0.4561
     22 C         138.4524  140.3328  156.6771 C.3     1  UNL1        0.2542
     23 O         142.9617  137.4280  160.2064 O.3     1  UNL1       -0.4561
     24 C         144.0251  137.7411  161.2169 C.3     1  UNL1        0.2542
     25 C         140.0030  142.8708  161.4498 C.3     1  UNL1        0.1161
     26 O         138.5517  142.8894  161.8288 O.3     1  UNL1       -0.3820
     27 H         138.1846  143.7711  161.6595 H       1  UNL1        0.2107
     28 C         143.3049  142.9192  159.2487 C.ar    1  UNL1        0.2271
     29 C         141.8536  142.9377  159.6276 C.ar    1  UNL1        0.0559
     30 C         141.4542  142.8522  161.0709 C.ar    1  UNL1        0.0117
     31 C         142.5060  142.7482  162.1352 C.ar    1  UNL1        0.0559
     32 C         143.9572  142.7296  161.7563 C.ar    1  UNL1        0.2270
     33 N         144.3566  142.8151  160.3130 N.ar    1  UNL1       -0.1767
     34 O         143.7043  143.0047  157.8053 O.3     1  UNL1       -0.4602
     35 C         143.7198  140.4250  157.4972 C.3     1  UNL1        0.0512
     36 C         144.2081  141.7845  157.0930 C.3     1  UNL1        0.2072
     37 O         145.0090  142.6256  162.8207 O.3     1  UNL1       -0.4640
     38 C         144.6230  142.2602  164.2234 C.3     1  UNL1        0.1678
     39 C         144.4634  143.3318  165.2607 C.3     1  UNL1        0.0473
     40 C         144.3964  140.8230  164.5887 C.3     1  UNL1        0.0473
     41 C         139.9139  144.3105  161.0382 C.3     1  UNL1        0.0491
     42 C         139.5878  145.3628  162.0563 C.3     1  UNL1        0.0750
     43 N         140.0349  145.1948  163.4782 N.3     1  UNL1       -0.2702
     44 C         141.4816  145.3673  163.8349 C.3     1  UNL1        0.0897
     45 C         139.0352  144.8542  164.5434 C.3     1  UNL1        0.0897
@<TRIPOS>BOND
     1    35    36    1
     2    36    34    1
     3    34    28    1
     4    28    29   ar
     5    29    30   ar
     6    30    25    1
     7    25    26    1
     8    25    41    1
     9    41    42    1
    10    42    43    1
    11    43    44    1
    12    43    45    1
    13    25     1    1
    14     1    15    1
    15    15    16   ar
    16    16    17   ar
    17    17    21    1
    18    21    22    1
    19    17    18   ar
    20    18    19   ar
    21    19    23    1
    22    23    24    1
    23    19    20   ar
    24     1     2    1
    25     2     3   ar
    26     3     4   ar
    27     4     5   ar
    28     5     6   ar
    29     6     7    1
    30     6     8   ar
    31     8     9   ar
    32     9    10   ar
    33    10    11   ar
    34    11    12   ar
    35    12    13    1
    36    13    14    1
    37    30    31   ar
    38    31    32   ar
    39    32    37    1
    40    37    38    1
    41    38    39    1
    42    38    40    1
    43    32    33   ar
    44    33    28   ar
    45    20    15   ar
    46    12     2   ar
    47    10     4   ar
    48    26    27    1
@<TRIPOS>MOLECULE
*****
 45 48 0 0 0
SMALL
GASTEIGER

@<TRIPOS>ATOM
      1 C         141.0912  140.5773  160.5273 C.3     1  UNL1        0.0779
      2 C         141.5330  140.0840  161.8732 C.ar    1  UNL1        0.0373
      3 C         141.6707  141.0454  163.0163 C.ar    1  UNL1        0.0023
      4 C         142.1124  140.5522  164.3622 C.ar    1  UNL1        0.0181
      5 C         142.2501  141.5137  165.5052 C.ar    1  UNL1        0.0082
      6 C         142.6919  141.0203  166.8512 C.ar    1  UNL1        0.0347
      7 BR        142.8296  141.9818  167.9942 Br      1  UNL1       -0.0490
      8 C         142.9960  139.5655  167.0540 C.ar    1  UNL1        0.0082
      9 C         142.8583  138.6041  165.9109 C.ar    1  UNL1        0.0197
     10 C         142.4165  139.0973  164.5650 C.ar    1  UNL1        0.0844
     11 N         142.2788  138.1359  163.4220 N.ar    1  UNL1       -0.2119
     12 C         141.8370  138.6292  162.0760 C.ar    1  UNL1        0.2211
     13 O         141.6993  137.6677  160.9330 O.3     1  UNL1       -0.4563
     14 C         143.0838  137.4686  160.3912 C.3     1  UNL1        0.2542
     15 C         141.9924  141.4647  159.7209 C.ar    1  UNL1       -0.0064
     16 C         143.1666  140.8793  158.9939 C.ar    1  UNL1        0.0540
     17 C         144.0678  141.7667  158.1875 C.ar    1  UNL1        0.2272
     18 N         143.7948  143.2396  158.1080 N.ar    1  UNL1       -0.1767
     19 C         142.6205  143.8250  158.8349 C.ar    1  UNL1        0.2272
     20 C         141.7193  142.9375  159.6414 C.ar    1  UNL1        0.0540
     21 O         145.2421  141.1814  157.4606 O.3     1  UNL1       -0.4561
     22 C         146.2347  142.0840  156.7897 C.3     1  UNL1        0.2542
     23 O         142.3474  145.2977  158.7555 O.3     1  UNL1       -0.4561
     24 C         141.7834  145.8891  157.4977 C.3     1  UNL1        0.2542
     25 C         139.7482  140.1832  159.9878 C.3     1  UNL1        0.1161
     26 O         140.4121  139.5300  158.8120 O.3     1  UNL1       -0.3820
     27 H         139.7364  139.1489  158.2297 H       1  UNL1        0.2107
     28 C         138.1988  142.9732  162.3469 C.ar    1  UNL1        0.2271
     29 C         138.8628  142.3200  161.1711 C.ar    1  UNL1        0.0559
     30 C         139.0842  140.8365  161.1635 C.ar    1  UNL1        0.0117
     31 C         138.6416  140.0062  162.3318 C.ar    1  UNL1        0.0559
     32 C         137.9777  140.6595  163.5075 C.ar    1  UNL1        0.2270
     33 N         137.7562  142.1430  163.5151 N.ar    1  UNL1       -0.1767
     34 O         137.9774  144.4569  162.3544 O.3     1  UNL1       -0.4602
     35 C         140.3724  144.9731  163.2187 C.3     1  UNL1        0.0512
     36 C         139.1477  145.3893  162.4594 C.3     1  UNL1        0.2072
     37 O         137.5351  139.8291  164.6758 O.3     1  UNL1       -0.4640
     38 C         138.5478  139.0785  165.4888 C.3     1  UNL1        0.1678
     39 C         138.9386  137.6840  165.0983 C.3     1  UNL1        0.0473
     40 C         139.1696  139.7224  166.6925 C.3     1  UNL1        0.0473
     41 C         138.4051  139.7891  159.4483 C.3     1  UNL1        0.0491
     42 C         137.7486  140.6231  158.3883 C.3     1  UNL1        0.0750
     43 N         138.4811  140.9322  157.1164 N.3     1  UNL1       -0.2702
     44 C         138.5011  139.9306  156.0000 C.3     1  UNL1        0.0897
     45 C         139.1938  142.2429  156.9609 C.3     1  UNL1        0.0897
@<TRIPOS>BOND
     1    35    36    1
     2    36    34    1
     3    34    28    1
     4    28    29   ar
     5    29    30   ar
     6    30    25    1
     7    25    26    1
     8    25    41    1
     9    41    42    1
    10    42    43    1
    11    43    44    1
    12    43    45    1
    13    25     1    1
    14     1    15    1
    15    15    16   ar
    16    16    17   ar
    17    17    21    1
    18    21    22    1
    19    17    18   ar
    20    18    19   ar
    21    19    23    1
    22    23    24    1
    23    19    20   ar
    24     1     2    1
    25     2     3   ar
    26     3     4   ar
    27     4     5   ar
    28     5     6   ar
    29     6     7    1
    30     6     8   ar
    31     8     9   ar
    32     9    10   ar
    33    10    11   ar
    34    11    12   ar
    35    12    13    1
    36    13    14    1
    37    30    31   ar
    38    31    32   ar
    39    32    37    1
    40    37    38    1
    41    38    39    1
    42    38    40    1
    43    32    33   ar
    44    33    28   ar
    45    20    15   ar
    46    12     2   ar
    47    10     4   ar
    48    26    27    1
@<TRIPOS>MOLECULE
*****
 45 48 0 0 0
SMALL
GASTEIGER

@<TRIPOS>ATOM
      1 C         140.7529  140.2200  161.9031 C.3     1  UNL1        0.0779
      2 C         140.2240  139.9480  163.2802 C.ar    1  UNL1        0.0373
      3 C         140.6020  140.8470  164.4198 C.ar    1  UNL1        0.0023
      4 C         140.0731  140.5751  165.7969 C.ar    1  UNL1        0.0181
      5 C         140.4511  141.4742  166.9366 C.ar    1  UNL1        0.0082
      6 C         139.9222  141.2022  168.3137 C.ar    1  UNL1        0.0347
      7 BR        140.3002  142.1013  169.4533 Br      1  UNL1       -0.0490
      8 C         139.0153  140.0313  168.5511 C.ar    1  UNL1        0.0082
      9 C         138.6373  139.1322  167.4114 C.ar    1  UNL1        0.0197
     10 C         139.1662  139.4041  166.0343 C.ar    1  UNL1        0.0844
     11 N         138.7882  138.5051  164.8947 N.ar    1  UNL1       -0.2119
     12 C         139.3171  138.7771  163.5176 C.ar    1  UNL1        0.2211
     13 O         138.9391  137.8780  162.3779 O.3     1  UNL1       -0.4563
     14 C         137.6620  138.4327  161.8198 C.3     1  UNL1        0.2542
     15 C         140.2586  141.4069  161.1307 C.ar    1  UNL1       -0.0064
     16 C         140.7346  142.7843  161.4861 C.ar    1  UNL1        0.0540
     17 C         140.2402  143.9713  160.7137 C.ar    1  UNL1        0.2272
     18 N         139.2698  143.7809  159.5858 N.ar    1  UNL1       -0.1767
     19 C         138.7938  142.4036  159.2303 C.ar    1  UNL1        0.2272
     20 C         139.2882  141.2166  160.0028 C.ar    1  UNL1        0.0540
     21 O         140.7162  145.3486  161.0692 O.3     1  UNL1       -0.4561
     22 C         139.8352  146.2641  161.8665 C.3     1  UNL1        0.2542
     23 O         137.8235  142.2132  158.1024 O.3     1  UNL1       -0.4561
     24 C         138.2531  141.4975  156.8563 C.3     1  UNL1        0.2542
     25 C         141.7762  139.3049  161.2985 C.3     1  UNL1        0.1161
     26 O         140.7649  138.8379  160.2938 O.3     1  UNL1       -0.3820
     27 H         141.1708  138.1793  159.7086 H       1  UNL1        0.2107
     28 C         144.2850  139.3020  164.3734 C.ar    1  UNL1        0.2271
     29 C         143.2738  138.8350  163.3688 C.ar    1  UNL1        0.0559
     30 C         142.7874  139.7719  162.3031 C.ar    1  UNL1        0.0117
     31 C         143.3122  141.1757  162.2421 C.ar    1  UNL1        0.0559
     32 C         144.3235  141.6427  163.2468 C.ar    1  UNL1        0.2270
     33 N         144.8099  140.7058  164.3124 N.ar    1  UNL1       -0.1767
     34 O         144.7714  138.3651  165.4392 O.3     1  UNL1       -0.4602
     35 C         142.9926  139.0049  167.2214 C.3     1  UNL1        0.0512
     36 C         143.8615  137.9731  166.5655 C.3     1  UNL1        0.2072
     37 O         144.8483  143.0466  163.1857 O.3     1  UNL1       -0.4640
     38 C         144.3037  144.0919  164.1135 C.3     1  UNL1        0.1678
     39 C         143.4228  145.1825  163.5801 C.3     1  UNL1        0.0473
     40 C         144.6399  144.0465  165.5746 C.3     1  UNL1        0.0473
     41 C         142.7994  138.3898  160.6938 C.3     1  UNL1        0.0491
     42 C         143.6514  138.8658  159.5547 C.3     1  UNL1        0.0750
     43 N         143.2063  138.6407  158.1401 N.3     1  UNL1       -0.2702
     44 C         142.6850  137.2976  157.7226 C.3     1  UNL1        0.0897
     45 C         143.2824  139.7587  157.1429 C.3     1  UNL1        0.0897
@<TRIPOS>BOND
     1    35    36    1
     2    36    34    1
     3    34    28    1
     4    28    29   ar
     5    29    30   ar
     6    30    25    1
     7    25    26    1
     8    25    41    1
     9    41    42    1
    10    42    43    1
    11    43    44    1
    12    43    45    1
    13    25     1    1
    14     1    15    1
    15    15    16   ar
    16    16    17   ar
    17    17    21    1
    18    21    22    1
    19    17    18   ar
    20    18    19   ar
    21    19    23    1
    22    23    24    1
    23    19    20   ar
    24     1     2    1
    25     2     3   ar
    26     3     4   ar
    27     4     5   ar
    28     5     6   ar
    29     6     7    1
    30     6     8   ar
    31     8     9   ar
    32     9    10   ar
    33    10    11   ar
    34    11    12   ar
    35    12    13    1
    36    13    14    1
    37    30    31   ar
    38    31    32   ar
    39    32    37    1
    40    37    38    1
    41    38    39    1
    42    38    40    1
    43    32    33   ar
    44    33    28   ar
    45    20    15   ar
    46    12     2   ar
    47    10     4   ar
    48    26    27    1
@<TRIPOS>MOLECULE
*****
 45 48 0 0 0
SMALL
GASTEIGER

@<TRIPOS>ATOM
      1 C         140.1148  141.4074  161.7226 C.3     1  UNL1        0.0779
      2 C         139.8611  140.9985  163.1434 C.ar    1  UNL1        0.0373
      3 C         140.7356  141.5247  164.2427 C.ar    1  UNL1        0.0023
      4 C         140.4820  141.1158  165.6634 C.ar    1  UNL1        0.0181
      5 C         141.3564  141.6420  166.7627 C.ar    1  UNL1        0.0082
      6 C         141.1028  141.2331  168.1835 C.ar    1  UNL1        0.0347
      7 BR        141.9772  141.7593  169.2829 Br      1  UNL1       -0.0490
      8 C         139.9748  140.2981  168.5049 C.ar    1  UNL1        0.0082
      9 C         139.1004  139.7719  167.4056 C.ar    1  UNL1        0.0197
     10 C         139.3540  140.1808  165.9849 C.ar    1  UNL1        0.0844
     11 N         138.4795  139.6546  164.8855 N.ar    1  UNL1       -0.2119
     12 C         138.7332  140.0635  163.4647 C.ar    1  UNL1        0.2211
     13 O         137.8587  139.5373  162.3654 O.3     1  UNL1       -0.4563
     14 C         138.1739  138.0753  162.2504 C.3     1  UNL1        0.2542
     15 C         140.4103  140.3664  160.6839 C.ar    1  UNL1       -0.0064
     16 C         141.5762  139.4395  160.8615 C.ar    1  UNL1        0.0540
     17 C         141.8718  138.3985  159.8228 C.ar    1  UNL1        0.2272
     18 N         141.0014  138.2843  158.6065 N.ar    1  UNL1       -0.1767
     19 C         139.8355  139.2112  158.4288 C.ar    1  UNL1        0.2272
     20 C         139.5400  140.2523  159.4676 C.ar    1  UNL1        0.0540
     21 O         143.0377  137.4716  160.0005 O.3     1  UNL1       -0.4561
     22 C         143.9637  137.6463  161.1675 C.3     1  UNL1        0.2542
     23 O         138.9652  139.0971  157.2125 O.3     1  UNL1       -0.4561
     24 C         139.4396  138.3189  156.0212 C.3     1  UNL1        0.2542
     25 C         140.0728  142.8573  161.3405 C.3     1  UNL1        0.1161
     26 O         138.6145  142.9067  161.6883 O.3     1  UNL1       -0.3820
     27 H         138.2746  143.8014  161.5303 H       1  UNL1        0.2107
     28 C         143.4214  142.8353  159.2107 C.ar    1  UNL1        0.2271
     29 C         141.9631  142.8847  159.5584 C.ar    1  UNL1        0.0559
     30 C         141.5311  142.8079  160.9928 C.ar    1  UNL1        0.0117
     31 C         142.5574  142.6816  162.0794 C.ar    1  UNL1        0.0559
     32 C         144.0157  142.6322  161.7316 C.ar    1  UNL1        0.2270
     33 N         144.4477  142.7090  160.2973 N.ar    1  UNL1       -0.1767
     34 O         143.8534  142.9122  157.7762 O.3     1  UNL1       -0.4602
     35 C         145.1912  140.8876  156.8481 C.3     1  UNL1        0.0512
     36 C         145.1553  142.3002  157.3512 C.3     1  UNL1        0.2072
     37 O         145.0420  142.5059  162.8183 O.3     1  UNL1       -0.4640
     38 C         144.6153  142.1778  164.2184 C.3     1  UNL1        0.1678
     39 C         144.3785  140.7508  164.6153 C.3     1  UNL1        0.0473
     40 C         144.4255  143.2767  165.2216 C.3     1  UNL1        0.0473
     41 C         140.0308  144.3072  160.9585 C.3     1  UNL1        0.0491
     42 C         139.6552  145.3410  161.9785 C.3     1  UNL1        0.0750
     43 N         140.1000  145.1858  163.4026 N.3     1  UNL1       -0.2702
     44 C         139.1043  144.8221  164.4639 C.3     1  UNL1        0.0897
     45 C         141.5405  145.3942  163.7654 C.3     1  UNL1        0.0897
@<TRIPOS>BOND
     1    35    36    1
     2    36    34    1
     3    34    28    1
     4    28    29   ar
     5    29    30   ar
     6    30    25    1
     7    25    26    1
     8    25    41    1
     9    41    42    1
    10    42    43    1
    11    43    44    1
    12    43    45    1
    13    25     1    1
    14     1    15    1
    15    15    16   ar
    16    16    17   ar
    17    17    21    1
    18    21    22    1
    19    17    18   ar
    20    18    19   ar
    21    19    23    1
    22    23    24    1
    23    19    20   ar
    24     1     2    1
    25     2     3   ar
    26     3     4   ar
    27     4     5   ar
    28     5     6   ar
    29     6     7    1
    30     6     8   ar
    31     8     9   ar
    32     9    10   ar
    33    10    11   ar
    34    11    12   ar
    35    12    13    1
    36    13    14    1
    37    30    31   ar
    38    31    32   ar
    39    32    37    1
    40    37    38    1
    41    38    39    1
    42    38    40    1
    43    32    33   ar
    44    33    28   ar
    45    20    15   ar
    46    12     2   ar
    47    10     4   ar
    48    26    27    1
