@<TRIPOS>MOLECULE
*****
 32 36 0 0 0
SMALL
GASTEIGER

@<TRIPOS>ATOM
      1 C         141.4711  142.0219  160.6695 C.ar    1  UNL1        0.0537
      2 C         140.8324  140.8487  159.9872 C.ar    1  UNL1        0.0060
      3 C         140.1798  139.7714  160.8018 C.ar    1  UNL1        0.0173
      4 C         140.1661  139.8673  162.2986 C.ar    1  UNL1        0.0594
      5 C         140.8049  141.0405  162.9809 C.ar    1  UNL1        0.0130
      6 C         141.4574  142.1178  162.1664 C.ar    1  UNL1        0.0057
      7 C         140.6364  140.8641  164.4609 C.ar    1  UNL1       -0.0091
      8 C         139.8934  139.5818  164.6934 C.ar    1  UNL1        0.0331
      9 N         139.6028  138.9658  163.3570 N.ar    1  UNL1       -0.3289
     10 C         138.8764  137.6749  163.1204 C.3     1  UNL1        0.1301
     11 C         139.5776  139.1409  166.0919 C.3     1  UNL1        0.0435
     12 C         140.0047  139.9822  167.2581 C.3     1  UNL1        0.0066
     13 C         140.7477  141.2645  167.0256 C.3     1  UNL1        0.0049
     14 C         141.0635  141.7054  165.6270 C.3     1  UNL1        0.0275
     15 C         141.1748  142.1058  168.1917 C.3     1  UNL1        0.0053
     16 C         140.2401  143.1337  168.7572 C.3     1  UNL1        0.0322
     17 C         140.6672  143.9750  169.9233 C.3     1  UNL1        0.1422
     18 O         142.0289  143.7884  170.5238 O.3     1  UNL1       -0.3538
     19 C         142.9636  142.7605  169.9583 C.3     1  UNL1        0.1422
     20 C         142.5366  141.9192  168.7923 C.3     1  UNL1        0.0322
     21 C         142.0189  145.4277  158.7071 C.3     1  UNL1        0.1157
     22 N         141.3663  144.3503  159.5217 N.am    1  UNL1       -0.2660
     23 C         142.1237  143.0993  159.8549 C.2     1  UNL1        0.2494
     24 O         143.5337  142.9255  159.3736 O.2     1  UNL1       -0.2699
     25 C         139.9563  144.5241  160.0030 C.3     1  UNL1        0.1793
     26 C         139.6901  144.8502  161.4428 C.2     1  UNL1        0.2427
     27 O         140.3305  146.0527  162.0703 O.2     1  UNL1       -0.2732
     28 N         138.7835  143.9736  162.2551 N.am    1  UNL1       -0.3046
     29 H         138.3632  143.1844  161.8432 H       1  UNL1        0.1494
     30 C         138.5173  144.2996  163.6948 C.3     1  UNL1        0.0717
     31 C         138.9969  144.8099  165.0213 C.3     1  UNL1        0.0213
     32 C         137.5768  144.3540  164.8620 C.3     1  UNL1        0.0213
@<TRIPOS>BOND
     1    21    22    1
     2    22    25    1
     3    25    26    1
     4    26    27    2
     5    26    28   am
     6    28    30    1
     7    30    31    1
     8    31    32    1
     9    22    23   am
    10    23    24    2
    11    23     1    1
    12     1     2   ar
    13     2     3   ar
    14     3     4   ar
    15     4     5   ar
    16     5     6   ar
    17     5     7   ar
    18     7     8   ar
    19     8     9   ar
    20     9    10    1
    21     8    11    1
    22    11    12    1
    23    12    13    1
    24    13    15    1
    25    15    16    1
    26    16    17    1
    27    17    18    1
    28    18    19    1
    29    19    20    1
    30    13    14    1
    31    32    30    1
    32     6     1   ar
    33    14     7    1
    34     9     4   ar
    35    20    15    1
    36    28    29    1
@<TRIPOS>MOLECULE
*****
 32 36 0 0 0
SMALL
GASTEIGER

@<TRIPOS>ATOM
      1 C         140.2326  142.5656  160.7868 C.ar    1  UNL1        0.0537
      2 C         139.7015  141.3377  160.1084 C.ar    1  UNL1        0.0060
      3 C         139.3783  140.1155  160.9156 C.ar    1  UNL1        0.0173
      4 C         139.5861  140.1211  162.4011 C.ar    1  UNL1        0.0594
      5 C         140.1171  141.3490  163.0795 C.ar    1  UNL1        0.0130
      6 C         140.4404  142.5713  162.2723 C.ar    1  UNL1        0.0057
      7 C         140.2178  141.0603  164.5480 C.ar    1  UNL1       -0.0091
      8 C         139.7490  139.6540  164.7772 C.ar    1  UNL1        0.0331
      9 N         139.3586  139.0735  163.4504 N.ar    1  UNL1       -0.3289
     10 C         138.8329  137.6886  163.2142 C.3     1  UNL1        0.1301
     11 C         139.7382  139.0838  166.1645 C.3     1  UNL1        0.0435
     12 C         140.1963  139.9199  167.3227 C.3     1  UNL1        0.0066
     13 C         140.6651  141.3262  167.0935 C.3     1  UNL1        0.0049
     14 C         140.6759  141.8964  165.7060 C.3     1  UNL1        0.0275
     15 C         141.1231  142.1622  168.2515 C.3     1  UNL1        0.0053
     16 C         142.4870  141.9482  168.8380 C.3     1  UNL1        0.0322
     17 C         142.9451  142.7843  169.9961 C.3     1  UNL1        0.1422
     18 O         142.0393  143.8343  170.5677 O.3     1  UNL1       -0.3538
     19 C         140.6754  144.0483  169.9812 C.3     1  UNL1        0.1422
     20 C         140.2173  143.2123  168.8232 C.3     1  UNL1        0.0322
     21 C         142.2244  145.1462  158.5231 C.3     1  UNL1        0.1157
     22 N         141.9011  143.9238  159.3302 N.am    1  UNL1       -0.2660
     23 C         140.5558  143.7880  159.9796 C.2     1  UNL1        0.2494
     24 O         139.5338  144.8745  159.8219 O.2     1  UNL1       -0.2699
     25 C         142.9232  142.8373  159.4880 C.3     1  UNL1        0.1793
     26 C         143.6538  142.6779  160.7883 C.2     1  UNL1        0.2427
     27 O         143.9549  143.8811  161.6318 O.2     1  UNL1       -0.2732
     28 N         144.0832  141.3152  161.2452 N.am    1  UNL1       -0.3046
     29 H         143.8856  140.5255  160.6916 H       1  UNL1        0.1494
     30 C         144.8138  141.1558  162.5455 C.3     1  UNL1        0.0717
     31 C         145.0760  140.3787  163.8014 C.3     1  UNL1        0.0213
     32 C         145.8170  141.6567  163.5418 C.3     1  UNL1        0.0213
@<TRIPOS>BOND
     1    21    22    1
     2    22    25    1
     3    25    26    1
     4    26    27    2
     5    26    28   am
     6    28    30    1
     7    30    31    1
     8    31    32    1
     9    22    23   am
    10    23    24    2
    11    23     1    1
    12     1     2   ar
    13     2     3   ar
    14     3     4   ar
    15     4     5   ar
    16     5     6   ar
    17     5     7   ar
    18     7     8   ar
    19     8     9   ar
    20     9    10    1
    21     8    11    1
    22    11    12    1
    23    12    13    1
    24    13    15    1
    25    15    16    1
    26    16    17    1
    27    17    18    1
    28    18    19    1
    29    19    20    1
    30    13    14    1
    31    32    30    1
    32     6     1   ar
    33    14     7    1
    34     9     4   ar
    35    20    15    1
    36    28    29    1
@<TRIPOS>MOLECULE
*****
 32 36 0 0 0
SMALL
GASTEIGER

@<TRIPOS>ATOM
      1 C         140.6778  140.2872  160.9548 C.ar    1  UNL1        0.0537
      2 C         141.9538  140.5161  160.2002 C.ar    1  UNL1        0.0060
      3 C         143.1658  141.0341  160.9161 C.ar    1  UNL1        0.0173
      4 C         143.1019  141.3232  162.3866 C.ar    1  UNL1        0.0594
      5 C         141.8259  141.0943  163.1412 C.ar    1  UNL1        0.0130
      6 C         140.6139  140.5763  162.4252 C.ar    1  UNL1        0.0057
      7 C         142.0621  141.4668  164.5748 C.ar    1  UNL1       -0.0091
      8 C         143.4840  141.9259  164.7064 C.ar    1  UNL1        0.0331
      9 N         144.1267  141.8372  163.3539 N.ar    1  UNL1       -0.3289
     10 C         145.5451  142.1989  163.0264 C.3     1  UNL1        0.1301
     11 C         144.0099  142.3655  166.0406 C.3     1  UNL1        0.0435
     12 C         143.1137  142.3459  167.2435 C.3     1  UNL1        0.0066
     13 C         141.6918  141.8867  167.1119 C.3     1  UNL1        0.0049
     14 C         141.1659  141.4472  165.7776 C.3     1  UNL1        0.0275
     15 C         140.7957  141.8671  168.3147 C.3     1  UNL1        0.0053
     16 C         139.9877  140.6428  168.6280 C.3     1  UNL1        0.0322
     17 C         139.0916  140.6232  169.8308 C.3     1  UNL1        0.1422
     18 O         139.0035  141.8279  170.7201 O.3     1  UNL1       -0.3538
     19 C         139.8114  143.0522  170.4067 C.3     1  UNL1        0.1422
     20 C         140.7075  143.0719  169.2040 C.3     1  UNL1        0.0322
     21 C         137.1292  140.1830  159.1808 C.3     1  UNL1        0.1157
     22 N         138.3413  140.7011  159.8967 N.am    1  UNL1       -0.2660
     23 C         139.4657  139.7691  160.2388 C.2     1  UNL1        0.2494
     24 O         139.3781  138.3190  159.8651 O.2     1  UNL1       -0.2699
     25 C         138.4290  142.1511  160.2704 C.3     1  UNL1        0.1793
     26 C         138.1852  142.5763  161.6881 C.2     1  UNL1        0.2427
     27 O         137.1688  141.8555  162.5231 O.2     1  UNL1       -0.2732
     28 N         138.9580  143.7223  162.2708 N.am    1  UNL1       -0.3046
     29 H         139.6251  144.1954  161.7227 H       1  UNL1        0.1494
     30 C         138.7143  144.1476  163.6884 C.3     1  UNL1        0.0717
     31 C         137.7673  144.4048  164.8229 C.3     1  UNL1        0.0213
     32 C         139.2390  144.6268  165.0094 C.3     1  UNL1        0.0213
@<TRIPOS>BOND
     1    21    22    1
     2    22    25    1
     3    25    26    1
     4    26    27    2
     5    26    28   am
     6    28    30    1
     7    30    31    1
     8    31    32    1
     9    22    23   am
    10    23    24    2
    11    23     1    1
    12     1     2   ar
    13     2     3   ar
    14     3     4   ar
    15     4     5   ar
    16     5     6   ar
    17     5     7   ar
    18     7     8   ar
    19     8     9   ar
    20     9    10    1
    21     8    11    1
    22    11    12    1
    23    12    13    1
    24    13    15    1
    25    15    16    1
    26    16    17    1
    27    17    18    1
    28    18    19    1
    29    19    20    1
    30    13    14    1
    31    32    30    1
    32     6     1   ar
    33    14     7    1
    34     9     4   ar
    35    20    15    1
    36    28    29    1
@<TRIPOS>MOLECULE
*****
 32 36 0 0 0
SMALL
GASTEIGER

@<TRIPOS>ATOM
      1 C         140.5443  140.3275  160.0205 C.ar    1  UNL1        0.0537
      2 C         140.1323  141.5591  159.2700 C.ar    1  UNL1        0.0060
      3 C         139.8196  142.8224  160.0159 C.ar    1  UNL1        0.0173
      4 C         139.9190  142.8540  161.5122 C.ar    1  UNL1        0.0594
      5 C         140.3310  141.6224  162.2627 C.ar    1  UNL1        0.0130
      6 C         140.6437  140.3591  161.5169 C.ar    1  UNL1        0.0057
      7 C         140.3412  141.9529  163.7258 C.ar    1  UNL1       -0.0091
      8 C         139.9355  143.3887  163.8796 C.ar    1  UNL1        0.0331
      9 N         139.6745  143.9457  162.5115 N.ar    1  UNL1       -0.3289
     10 C         139.2446  145.3481  162.1977 C.3     1  UNL1        0.1301
     11 C         139.8560  144.0035  165.2455 C.3     1  UNL1        0.0435
     12 C         140.1824  143.1824  166.4577 C.3     1  UNL1        0.0066
     13 C         140.5881  141.7465  166.3040 C.3     1  UNL1        0.0049
     14 C         140.6675  141.1317  164.9380 C.3     1  UNL1        0.0275
     15 C         140.9144  140.9254  167.5161 C.3     1  UNL1        0.0053
     16 C         142.2030  140.1603  167.5789 C.3     1  UNL1        0.0322
     17 C         142.5293  139.3392  168.7911 C.3     1  UNL1        0.1422
     18 O         141.5671  139.2832  169.9403 O.3     1  UNL1       -0.3538
     19 C         140.2785  140.0484  169.8775 C.3     1  UNL1        0.1422
     20 C         139.9521  140.8695  168.6654 C.3     1  UNL1        0.0322
     21 C         142.5883  137.4757  158.1657 C.3     1  UNL1        0.1157
     22 N         142.2756  138.7391  158.9115 N.am    1  UNL1       -0.2660
     23 C         140.8570  139.0641  159.2746 C.2     1  UNL1        0.2494
     24 O         139.7510  138.1259  158.8919 O.2     1  UNL1       -0.2699
     25 C         143.3816  139.6773  159.2943 C.3     1  UNL1        0.1793
     26 C         143.9659  139.6244  160.6748 C.2     1  UNL1        0.2427
     27 O         144.2541  138.2998  161.3170 O.2     1  UNL1       -0.2732
     28 N         144.2621  140.8961  161.4131 N.am    1  UNL1       -0.3046
     29 H         144.0729  141.7655  160.9916 H       1  UNL1        0.1494
     30 C         144.8464  140.8432  162.7936 C.3     1  UNL1        0.0717
     31 C         145.7393  141.4245  163.8494 C.3     1  UNL1        0.0213
     32 C         144.9656  140.1703  164.1289 C.3     1  UNL1        0.0213
@<TRIPOS>BOND
     1    21    22    1
     2    22    25    1
     3    25    26    1
     4    26    27    2
     5    26    28   am
     6    28    30    1
     7    30    31    1
     8    31    32    1
     9    22    23   am
    10    23    24    2
    11    23     1    1
    12     1     2   ar
    13     2     3   ar
    14     3     4   ar
    15     4     5   ar
    16     5     6   ar
    17     5     7   ar
    18     7     8   ar
    19     8     9   ar
    20     9    10    1
    21     8    11    1
    22    11    12    1
    23    12    13    1
    24    13    15    1
    25    15    16    1
    26    16    17    1
    27    17    18    1
    28    18    19    1
    29    19    20    1
    30    13    14    1
    31    32    30    1
    32     6     1   ar
    33    14     7    1
    34     9     4   ar
    35    20    15    1
    36    28    29    1
@<TRIPOS>MOLECULE
*****
 32 36 0 0 0
SMALL
GASTEIGER

@<TRIPOS>ATOM
      1 C         142.0855  141.0585  160.0684 C.ar    1  UNL1        0.0537
      2 C         141.6029  142.2651  159.3194 C.ar    1  UNL1        0.0060
      3 C         140.9441  143.3924  160.0578 C.ar    1  UNL1        0.0173
      4 C         140.7679  143.3129  161.5453 C.ar    1  UNL1        0.0594
      5 C         141.2505  142.1063  162.2944 C.ar    1  UNL1        0.0130
      6 C         141.9093  140.9791  161.5559 C.ar    1  UNL1        0.0057
      7 C         140.9411  142.3088  163.7481 C.ar    1  UNL1       -0.0091
      8 C         140.2673  143.6407  163.8975 C.ar    1  UNL1        0.0331
      9 N         140.1603  144.2613  162.5361 N.ar    1  UNL1       -0.3289
     10 C         139.5523  145.5958  162.2208 C.3     1  UNL1        0.1301
     11 C         139.8383  144.1162  165.2538 C.3     1  UNL1        0.0435
     12 C         140.0831  143.2599  166.4609 C.3     1  UNL1        0.0066
     13 C         140.7569  141.9281  166.3115 C.3     1  UNL1        0.0049
     14 C         141.1859  141.4526  164.9550 C.3     1  UNL1        0.0275
     15 C         141.0017  141.0718  167.5185 C.3     1  UNL1        0.0053
     16 C         142.2804  140.2974  167.6418 C.3     1  UNL1        0.0322
     17 C         142.5253  139.4411  168.8488 C.3     1  UNL1        0.1422
     18 O         141.4914  139.3592  169.9324 O.3     1  UNL1       -0.3538
     19 C         140.2127  140.1336  169.8091 C.3     1  UNL1        0.1422
     20 C         139.9678  140.9899  168.6022 C.3     1  UNL1        0.0322
     21 C         142.6677  137.5135  158.3818 C.3     1  UNL1        0.1157
     22 N         142.0089  138.6408  159.1203 N.am    1  UNL1       -0.2660
     23 C         142.7443  139.9312  159.3300 C.2     1  UNL1        0.2494
     24 O         144.1385  140.0944  158.8013 O.2     1  UNL1       -0.2699
     25 C         140.6147  138.4776  159.6490 C.3     1  UNL1        0.1793
     26 C         140.3911  138.2350  161.1123 C.2     1  UNL1        0.2427
     27 O         141.3308  137.3517  161.8782 O.2     1  UNL1       -0.2732
     28 N         139.2278  138.8757  161.8096 N.am    1  UNL1       -0.3046
     29 H         138.6110  139.4555  161.3068 H       1  UNL1        0.1494
     30 C         139.0042  138.6331  163.2728 C.3     1  UNL1        0.0717
     31 C         139.1790  137.7718  164.4884 C.3     1  UNL1        0.0213
     32 C         138.4420  139.0741  164.5917 C.3     1  UNL1        0.0213
@<TRIPOS>BOND
     1    21    22    1
     2    22    25    1
     3    25    26    1
     4    26    27    2
     5    26    28   am
     6    28    30    1
     7    30    31    1
     8    31    32    1
     9    22    23   am
    10    23    24    2
    11    23     1    1
    12     1     2   ar
    13     2     3   ar
    14     3     4   ar
    15     4     5   ar
    16     5     6   ar
    17     5     7   ar
    18     7     8   ar
    19     8     9   ar
    20     9    10    1
    21     8    11    1
    22    11    12    1
    23    12    13    1
    24    13    15    1
    25    15    16    1
    26    16    17    1
    27    17    18    1
    28    18    19    1
    29    19    20    1
    30    13    14    1
    31    32    30    1
    32     6     1   ar
    33    14     7    1
    34     9     4   ar
    35    20    15    1
    36    28    29    1
@<TRIPOS>MOLECULE
*****
 32 36 0 0 0
SMALL
GASTEIGER

@<TRIPOS>ATOM
      1 C         142.2339  142.7173  159.7299 C.ar    1  UNL1        0.0537
      2 C         142.7362  141.5600  158.9186 C.ar    1  UNL1        0.0060
      3 C         143.1895  140.3048  159.6033 C.ar    1  UNL1        0.0173
      4 C         143.1404  140.2068  161.0993 C.ar    1  UNL1        0.0594
      5 C         142.6380  141.3641  161.9106 C.ar    1  UNL1        0.0130
      6 C         142.1848  142.6194  161.2259 C.ar    1  UNL1        0.0057
      7 C         142.7047  140.9787  163.3586 C.ar    1  UNL1       -0.0091
      8 C         143.2483  139.5831  163.4423 C.ar    1  UNL1        0.0331
      9 N         143.5176  139.1061  162.0460 N.ar    1  UNL1       -0.3289
     10 C         144.0675  137.7640  161.6634 C.3     1  UNL1        0.1301
     11 C         143.4279  138.9271  164.7792 C.3     1  UNL1        0.0435
     12 C         143.0638  139.6666  166.0326 C.3     1  UNL1        0.0066
     13 C         142.5202  141.0621  165.9489 C.3     1  UNL1        0.0049
     14 C         142.3407  141.7182  164.6119 C.3     1  UNL1        0.0275
     15 C         142.1562  141.8017  167.2021 C.3     1  UNL1        0.0053
     16 C         143.1588  141.9403  168.3091 C.3     1  UNL1        0.0322
     17 C         142.7947  142.6798  169.5624 C.3     1  UNL1        0.1422
     18 O         141.4282  143.2806  169.7085 O.3     1  UNL1       -0.3538
     19 C         140.4256  143.1420  168.6015 C.3     1  UNL1        0.1422
     20 C         140.7896  142.4025  167.3483 C.3     1  UNL1        0.0322
     21 C         139.8624  145.5038  158.1928 C.3     1  UNL1        0.1157
     22 N         140.3157  144.2485  158.8775 N.am    1  UNL1       -0.2660
     23 C         141.7806  143.9727  159.0452 C.2     1  UNL1        0.2494
     24 O         142.7922  144.9522  158.5282 O.2     1  UNL1       -0.2699
     25 C         139.3041  143.2690  159.3945 C.3     1  UNL1        0.1793
     26 C         138.9640  143.2427  160.8552 C.2     1  UNL1        0.2427
     27 O         138.4783  141.9732  161.4895 O.2     1  UNL1       -0.2732
     28 N         139.1096  144.4860  161.6817 N.am    1  UNL1       -0.3046
     29 H         139.4284  145.3193  161.2654 H       1  UNL1        0.1494
     30 C         138.7695  144.4598  163.1423 C.3     1  UNL1        0.0717
     31 C         139.1119  144.8016  164.5622 C.3     1  UNL1        0.0213
     32 C         137.8381  144.0726  164.2525 C.3     1  UNL1        0.0213
@<TRIPOS>BOND
     1    21    22    1
     2    22    25    1
     3    25    26    1
     4    26    27    2
     5    26    28   am
     6    28    30    1
     7    30    31    1
     8    31    32    1
     9    22    23   am
    10    23    24    2
    11    23     1    1
    12     1     2   ar
    13     2     3   ar
    14     3     4   ar
    15     4     5   ar
    16     5     6   ar
    17     5     7   ar
    18     7     8   ar
    19     8     9   ar
    20     9    10    1
    21     8    11    1
    22    11    12    1
    23    12    13    1
    24    13    15    1
    25    15    16    1
    26    16    17    1
    27    17    18    1
    28    18    19    1
    29    19    20    1
    30    13    14    1
    31    32    30    1
    32     6     1   ar
    33    14     7    1
    34     9     4   ar
    35    20    15    1
    36    28    29    1
@<TRIPOS>MOLECULE
*****
 32 36 0 0 0
SMALL
GASTEIGER

@<TRIPOS>ATOM
      1 C         140.1746  142.6603  161.9588 C.ar    1  UNL1        0.0537
      2 C         140.6066  141.7607  160.8390 C.ar    1  UNL1        0.0060
      3 C         141.3978  140.5213  161.1353 C.ar    1  UNL1        0.0173
      4 C         141.7570  140.1815  162.5515 C.ar    1  UNL1        0.0594
      5 C         141.3250  141.0812  163.6713 C.ar    1  UNL1        0.0130
      6 C         140.5338  142.3205  163.3749 C.ar    1  UNL1        0.0057
      7 C         141.8232  140.4920  164.9576 C.ar    1  UNL1       -0.0091
      8 C         142.5631  139.2283  164.6329 C.ar    1  UNL1        0.0331
      9 N         142.5223  139.0364  163.1458 N.ar    1  UNL1       -0.3289
     10 C         143.1384  137.8990  162.3863 C.3     1  UNL1        0.1301
     11 C         143.1785  138.4156  165.7332 C.3     1  UNL1        0.0435
     12 C         143.0540  138.8666  167.1584 C.3     1  UNL1        0.0066
     13 C         142.3141  140.1304  167.4832 C.3     1  UNL1        0.0049
     14 C         141.6987  140.9431  166.3828 C.3     1  UNL1        0.0275
     15 C         142.1895  140.5814  168.9084 C.3     1  UNL1        0.0053
     16 C         141.7038  139.6259  169.9577 C.3     1  UNL1        0.0322
     17 C         141.5793  140.0770  171.3828 C.3     1  UNL1        0.1422
     18 O         141.9404  141.4834  171.7586 O.3     1  UNL1       -0.3538
     19 C         142.4261  142.4389  170.7093 C.3     1  UNL1        0.1422
     20 C         142.5507  141.9879  169.2842 C.3     1  UNL1        0.0322
     21 C         139.2998  146.4324  161.0891 C.3     1  UNL1        0.1157
     22 N         140.0910  145.1930  161.3854 N.am    1  UNL1       -0.2660
     23 C         139.3834  143.8998  161.6624 C.2     1  UNL1        0.2494
     24 O         137.8845  143.8459  161.6431 O.2     1  UNL1       -0.2699
     25 C         141.5899  145.2468  161.4047 C.3     1  UNL1        0.1793
     26 C         142.3389  144.8465  162.6412 C.2     1  UNL1        0.2427
     27 O         142.0016  145.4773  163.9596 O.2     1  UNL1       -0.2732
     28 N         143.4252  143.8154  162.5592 N.am    1  UNL1       -0.3046
     29 H         143.6466  143.4014  161.6939 H       1  UNL1        0.1494
     30 C         144.1742  143.4150  163.7956 C.3     1  UNL1        0.0717
     31 C         144.5894  143.6928  165.2100 C.3     1  UNL1        0.0213
     32 C         145.0563  142.4439  164.5228 C.3     1  UNL1        0.0213
@<TRIPOS>BOND
     1    21    22    1
     2    22    25    1
     3    25    26    1
     4    26    27    2
     5    26    28   am
     6    28    30    1
     7    30    31    1
     8    31    32    1
     9    22    23   am
    10    23    24    2
    11    23     1    1
    12     1     2   ar
    13     2     3   ar
    14     3     4   ar
    15     4     5   ar
    16     5     6   ar
    17     5     7   ar
    18     7     8   ar
    19     8     9   ar
    20     9    10    1
    21     8    11    1
    22    11    12    1
    23    12    13    1
    24    13    15    1
    25    15    16    1
    26    16    17    1
    27    17    18    1
    28    18    19    1
    29    19    20    1
    30    13    14    1
    31    32    30    1
    32     6     1   ar
    33    14     7    1
    34     9     4   ar
    35    20    15    1
    36    28    29    1
@<TRIPOS>MOLECULE
*****
 32 36 0 0 0
SMALL
GASTEIGER

@<TRIPOS>ATOM
      1 C         140.0394  140.4311  161.1778 C.ar    1  UNL1        0.0537
      2 C         141.0083  140.6741  160.0588 C.ar    1  UNL1        0.0060
      3 C         142.3381  141.3074  160.3424 C.ar    1  UNL1        0.0173
      4 C         142.6990  141.6977  161.7450 C.ar    1  UNL1        0.0594
      5 C         141.7301  141.4548  162.8640 C.ar    1  UNL1        0.0130
      6 C         140.4003  140.8215  162.5804 C.ar    1  UNL1        0.0057
      7 C         142.3591  141.9418  164.1357 C.ar    1  UNL1       -0.0091
      8 C         143.7168  142.4857  163.8027 C.ar    1  UNL1        0.0331
      9 N         143.9269  142.3349  162.3251 N.ar    1  UNL1       -0.3289
     10 C         145.1500  142.7486  161.5617 C.3     1  UNL1        0.1301
     11 C         144.5863  143.0481  164.8878 C.3     1  UNL1        0.0435
     12 C         144.0982  143.0665  166.3062 C.3     1  UNL1        0.0066
     13 C         142.7406  142.5226  166.6392 C.3     1  UNL1        0.0049
     14 C         141.8710  141.9602  165.5539 C.3     1  UNL1        0.0275
     15 C         142.2524  142.5410  168.0574 C.3     1  UNL1        0.0053
     16 C         143.2284  142.4050  169.1883 C.3     1  UNL1        0.0322
     17 C         142.7403  142.4234  170.6065 C.3     1  UNL1        0.1422
     18 O         141.2763  142.5778  170.8939 O.3     1  UNL1       -0.3538
     19 C         140.3003  142.7138  169.7630 C.3     1  UNL1        0.1422
     20 C         140.7883  142.6954  168.3448 C.3     1  UNL1        0.0322
     21 C         137.0588  137.8107  161.1712 C.3     1  UNL1        0.1157
     22 N         138.3887  138.4441  161.4548 N.am    1  UNL1       -0.2660
     23 C         138.7095  139.7978  160.8942 C.2     1  UNL1        0.2494
     24 O         137.7005  140.5183  160.0499 O.2     1  UNL1       -0.2699
     25 C         139.3977  137.7236  162.2991 C.3     1  UNL1        0.1793
     26 C         139.4038  137.9142  163.7870 C.2     1  UNL1        0.2427
     27 O         140.4850  137.2902  164.6186 O.2     1  UNL1       -0.2732
     28 N         138.3288  138.7289  164.4431 N.am    1  UNL1       -0.3046
     29 H         137.6192  139.1385  163.8973 H       1  UNL1        0.1494
     30 C         138.3349  138.9196  165.9309 C.3     1  UNL1        0.0717
     31 C         138.9862  139.4622  167.1684 C.3     1  UNL1        0.0213
     32 C         137.6941  138.7072  167.2704 C.3     1  UNL1        0.0213
@<TRIPOS>BOND
     1    21    22    1
     2    22    25    1
     3    25    26    1
     4    26    27    2
     5    26    28   am
     6    28    30    1
     7    30    31    1
     8    31    32    1
     9    22    23   am
    10    23    24    2
    11    23     1    1
    12     1     2   ar
    13     2     3   ar
    14     3     4   ar
    15     4     5   ar
    16     5     6   ar
    17     5     7   ar
    18     7     8   ar
    19     8     9   ar
    20     9    10    1
    21     8    11    1
    22    11    12    1
    23    12    13    1
    24    13    15    1
    25    15    16    1
    26    16    17    1
    27    17    18    1
    28    18    19    1
    29    19    20    1
    30    13    14    1
    31    32    30    1
    32     6     1   ar
    33    14     7    1
    34     9     4   ar
    35    20    15    1
    36    28    29    1
@<TRIPOS>MOLECULE
*****
 32 36 0 0 0
SMALL
GASTEIGER

@<TRIPOS>ATOM
      1 C         142.6663  140.4638  161.6016 C.ar    1  UNL1        0.0537
      2 C         141.9120  139.4770  160.7606 C.ar    1  UNL1        0.0060
      3 C         140.7508  138.7276  161.3437 C.ar    1  UNL1        0.0173
      4 C         140.3438  138.9651  162.7677 C.ar    1  UNL1        0.0594
      5 C         141.0980  139.9519  163.6087 C.ar    1  UNL1        0.0130
      6 C         142.2593  140.7013  163.0257 C.ar    1  UNL1        0.0057
      7 C         140.4700  139.9758  164.9707 C.ar    1  UNL1       -0.0091
      8 C         139.3276  139.0037  164.9715 C.ar    1  UNL1        0.0331
      9 N         139.2496  138.3790  163.6100 N.ar    1  UNL1       -0.3289
     10 C         138.2525  137.3492  163.1682 C.3     1  UNL1        0.1301
     11 C         138.5060  138.8129  166.2118 C.3     1  UNL1        0.0435
     12 C         138.8267  139.5943  167.4515 C.3     1  UNL1        0.0066
     13 C         139.9691  140.5664  167.4507 C.3     1  UNL1        0.0049
     14 C         140.7908  140.7571  166.2103 C.3     1  UNL1        0.0275
     15 C         140.2899  141.3477  168.6903 C.3     1  UNL1        0.0053
     16 C         140.4987  140.6345  169.9933 C.3     1  UNL1        0.0322
     17 C         140.8195  141.4159  171.2329 C.3     1  UNL1        0.1422
     18 O         140.9315  142.9103  171.1695 O.3     1  UNL1       -0.3538
     19 C         140.7226  143.6234  169.8666 C.3     1  UNL1        0.1422
     20 C         140.4018  142.8422  168.6270 C.3     1  UNL1        0.0322
     21 C         144.7730  142.9078  159.2909 C.3     1  UNL1        0.1157
     22 N         143.6117  142.1584  159.8740 N.am    1  UNL1       -0.2660
     23 C         143.8275  141.2132  161.0185 C.2     1  UNL1        0.2494
     24 O         145.2046  141.0174  161.5801 O.2     1  UNL1       -0.2699
     25 C         142.2346  142.3542  159.3124 C.3     1  UNL1        0.1793
     26 C         141.1931  143.0762  160.1149 C.2     1  UNL1        0.2427
     27 O         139.8723  142.4215  160.3917 O.2     1  UNL1       -0.2732
     28 N         141.4725  144.4530  160.6407 N.am    1  UNL1       -0.3046
     29 H         142.3394  144.8828  160.4590 H       1  UNL1        0.1494
     30 C         140.4310  145.1751  161.4431 C.3     1  UNL1        0.0717
     31 C         139.4187  145.1833  162.5500 C.3     1  UNL1        0.0213
     32 C         139.6395  146.4173  161.7263 C.3     1  UNL1        0.0213
@<TRIPOS>BOND
     1    21    22    1
     2    22    25    1
     3    25    26    1
     4    26    27    2
     5    26    28   am
     6    28    30    1
     7    30    31    1
     8    31    32    1
     9    22    23   am
    10    23    24    2
    11    23     1    1
    12     1     2   ar
    13     2     3   ar
    14     3     4   ar
    15     4     5   ar
    16     5     6   ar
    17     5     7   ar
    18     7     8   ar
    19     8     9   ar
    20     9    10    1
    21     8    11    1
    22    11    12    1
    23    12    13    1
    24    13    15    1
    25    15    16    1
    26    16    17    1
    27    17    18    1
    28    18    19    1
    29    19    20    1
    30    13    14    1
    31    32    30    1
    32     6     1   ar
    33    14     7    1
    34     9     4   ar
    35    20    15    1
    36    28    29    1
