@<TRIPOS>MOLECULE
*****
 30 34 0 0 0
SMALL
GASTEIGER

@<TRIPOS>ATOM
      1 C         142.9970  139.2887  159.2551 C.2     1  UNL1        0.2455
      2 O         144.3183  139.8758  158.8557 O.2     1  UNL1       -0.2702
      3 N         142.5204  139.4092  160.6723 N.am    1  UNL1       -0.2763
      4 C         143.3649  140.1169  161.6900 C.3     1  UNL1        0.0937
      5 C         142.8883  140.2374  163.1071 C.3     1  UNL1        0.0223
      6 C         141.5670  139.6503  163.5065 C.3     1  UNL1        0.0148
      7 C         140.7224  138.9426  162.4888 C.3     1  UNL1        0.0223
      8 C         141.1991  138.8221  161.0717 C.3     1  UNL1        0.0937
      9 C         142.4116  140.3580  164.5243 C.3     1  UNL1        0.0712
     10 C         141.9349  140.4785  165.9414 C.2     1  UNL1        0.1899
     11 O         142.7795  141.1862  166.9592 O.2     1  UNL1       -0.2898
     12 C         140.6136  139.8914  166.3408 C.ar    1  UNL1        0.1099
     13 C         139.7690  139.1837  165.3230 C.ar    1  UNL1        0.0188
     14 C         138.5208  138.7088  166.0059 C.ar    1  UNL1        0.1174
     15 N         138.5940  139.1229  167.4457 N.ar    1  UNL1       -0.1680
     16 N         139.8874  139.8538  167.6527 N.ar    1  UNL1       -0.2503
     17 C         140.2457  139.0631  163.9058 C.3     1  UNL1        0.0301
     18 C         137.1650  137.7336  154.2359 C.3     1  UNL1        0.1367
     19 C         138.3817  137.7747  155.1122 C.2     1  UNL1        0.3518
     20 N         139.4352  136.7113  155.2085 N.2     1  UNL1       -0.0350
     21 C         140.4632  137.1657  156.2019 C.2     1  UNL1        0.2317
     22 C         141.7260  136.5291  156.7019 C.2     1  UNL1        0.0500
     23 C         142.5706  137.2367  157.7197 C.2     1  UNL1        0.0046
     24 C         142.1524  138.5810  158.2374 C.2     1  UNL1        0.0399
     25 C         140.8896  139.2176  157.7373 C.3     1  UNL1        0.1086
     26 C         140.0450  138.5100  156.7196 C.2     1  UNL1        0.2176
     27 N         138.7586  138.8863  156.0461 N.2     1  UNL1       -0.0389
     28 C         140.3699  140.4436  168.9448 C.3     1  UNL1        0.1054
     29 C         141.1759  139.6091  169.8953 C.3     1  UNL1        0.0263
     30 C         140.0463  141.8680  169.2861 C.3     1  UNL1        0.0263
@<TRIPOS>BOND
     1    18    19    1
     2    19    20    2
     3    20    21    1
     4    21    22    2
     5    22    23    1
     6    23    24    2
     7    24     1    1
     8     1     2    2
     9     1     3   am
    10     3     4    1
    11     4     5    1
    12     5     6    1
    13     6     7    1
    14     7     8    1
    15     6     9    1
    16     9    10    1
    17    10    11    2
    18    10    12    1
    19    12    13   ar
    20    13    14   ar
    21    14    15   ar
    22    15    16   ar
    23    16    28    1
    24    28    29    1
    25    28    30    1
    26    13    17    1
    27    24    25    1
    28    25    26    1
    29    26    27    2
    30    27    19    1
    31    26    21    1
    32     8     3    1
    33    16    12   ar
    34    17     6    1
@<TRIPOS>MOLECULE
*****
 30 34 0 0 0
SMALL
GASTEIGER

@<TRIPOS>ATOM
      1 C         139.0208  138.7610  165.3170 C.2     1  UNL1        0.2455
      2 O         138.4524  137.3801  165.4590 O.2     1  UNL1       -0.2702
      3 N         138.9892  139.4518  163.9859 N.am    1  UNL1       -0.2763
      4 C         138.3893  138.7618  162.7968 C.3     1  UNL1        0.0937
      5 C         138.3578  139.4526  161.4658 C.3     1  UNL1        0.0223
      6 C         138.9262  140.8335  161.3238 C.3     1  UNL1        0.0148
      7 C         139.5261  141.5235  162.5129 C.3     1  UNL1        0.0223
      8 C         139.5576  140.8327  163.8439 C.3     1  UNL1        0.0937
      9 C         138.3263  140.1434  160.1347 C.3     1  UNL1        0.0712
     10 C         138.2948  140.8343  158.8036 C.2     1  UNL1        0.1899
     11 O         137.6948  140.1442  157.6145 O.2     1  UNL1       -0.2898
     12 C         138.8631  142.2151  158.6616 C.ar    1  UNL1        0.1099
     13 C         139.4631  142.9052  159.8507 C.ar    1  UNL1        0.0188
     14 C         139.9432  144.2559  159.4094 C.ar    1  UNL1        0.1174
     15 N         139.6401  144.4007  157.9475 N.ar    1  UNL1       -0.1680
     16 N         138.9726  143.1395  157.4854 N.ar    1  UNL1       -0.2503
     17 C         139.4946  142.2143  161.1818 C.3     1  UNL1        0.0301
     18 C         144.1688  142.5044  169.9113 C.3     1  UNL1        0.1367
     19 C         143.0093  141.8103  169.2604 C.2     1  UNL1        0.3518
     20 N         141.6736  141.5462  169.8898 N.2     1  UNL1       -0.0350
     21 C         140.8206  140.8311  168.8843 C.2     1  UNL1        0.2317
     22 C         139.4121  140.3189  168.9460 C.2     1  UNL1        0.0500
     23 C         138.8121  139.6289  167.7569 C.2     1  UNL1        0.0046
     24 C         139.6207  139.4510  166.5061 C.2     1  UNL1        0.0399
     25 C         141.0292  139.9632  166.4444 C.3     1  UNL1        0.1086
     26 C         141.6291  140.6532  167.6334 C.2     1  UNL1        0.2176
     27 N         142.9818  141.2584  167.8659 N.2     1  UNL1       -0.0389
     28 C         138.4978  142.8528  156.0916 C.3     1  UNL1        0.1054
     29 C         137.0954  143.2023  155.6903 C.3     1  UNL1        0.0263
     30 C         139.4254  142.2166  155.0992 C.3     1  UNL1        0.0263
@<TRIPOS>BOND
     1    18    19    1
     2    19    20    2
     3    20    21    1
     4    21    22    2
     5    22    23    1
     6    23    24    2
     7    24     1    1
     8     1     2    2
     9     1     3   am
    10     3     4    1
    11     4     5    1
    12     5     6    1
    13     6     7    1
    14     7     8    1
    15     6     9    1
    16     9    10    1
    17    10    11    2
    18    10    12    1
    19    12    13   ar
    20    13    14   ar
    21    14    15   ar
    22    15    16   ar
    23    16    28    1
    24    28    29    1
    25    28    30    1
    26    13    17    1
    27    24    25    1
    28    25    26    1
    29    26    27    2
    30    27    19    1
    31    26    21    1
    32     8     3    1
    33    16    12   ar
    34    17     6    1
@<TRIPOS>MOLECULE
*****
 30 34 0 0 0
SMALL
GASTEIGER

@<TRIPOS>ATOM
      1 C         140.5678  142.2959  159.5349 C.2     1  UNL1        0.2455
      2 O         141.5376  143.3657  159.1287 O.2     1  UNL1       -0.2702
      3 N         140.3948  141.9516  160.9847 N.am    1  UNL1       -0.2763
      4 C         141.1916  142.6771  162.0281 C.3     1  UNL1        0.0937
      5 C         141.0185  142.3328  163.4777 C.3     1  UNL1        0.0223
      6 C         140.0488  141.2630  163.8839 C.3     1  UNL1        0.0148
      7 C         139.2520  140.5375  162.8405 C.3     1  UNL1        0.0223
      8 C         139.4250  140.8818  161.3909 C.3     1  UNL1        0.0937
      9 C         140.8455  141.9885  164.9274 C.3     1  UNL1        0.0712
     10 C         140.6725  141.6442  166.3771 C.2     1  UNL1        0.1899
     11 O         141.4693  142.3698  167.4206 O.2     1  UNL1       -0.2898
     12 C         139.7028  140.5744  166.7833 C.ar    1  UNL1        0.1099
     13 C         138.9060  139.8489  165.7399 C.ar    1  UNL1        0.0188
     14 C         138.0323  138.8482  166.4364 C.ar    1  UNL1        0.1174
     15 N         138.2891  138.9553  167.9104 N.ar    1  UNL1       -0.1680
     16 N         139.3215  140.0221  168.1248 N.ar    1  UNL1       -0.2503
     17 C         139.0790  140.1932  164.2902 C.3     1  UNL1        0.0301
     18 C         134.7944  140.4786  154.5361 C.3     1  UNL1        0.1367
     19 C         136.0219  140.5861  155.3913 C.2     1  UNL1        0.3518
     20 N         137.1745  139.6262  155.4042 N.2     1  UNL1       -0.0350
     21 C         138.1774  140.1193  156.4047 C.2     1  UNL1        0.2317
     22 C         139.5068  139.5800  156.8426 C.2     1  UNL1        0.0500
     23 C         140.3037  140.3056  157.8860 C.2     1  UNL1        0.0046
     24 C         139.7710  141.5703  158.4915 C.2     1  UNL1        0.0399
     25 C         138.4415  142.1096  158.0536 C.3     1  UNL1        0.1086
     26 C         137.6447  141.3840  157.0102 C.2     1  UNL1        0.2176
     27 N         136.3126  141.6725  156.3839 N.2     1  UNL1       -0.0389
     28 C         139.8754  140.4599  169.4483 C.3     1  UNL1        0.1054
     29 C         139.3259  141.6809  170.1244 C.3     1  UNL1        0.0263
     30 C         140.9788  139.6766  170.0956 C.3     1  UNL1        0.0263
@<TRIPOS>BOND
     1    18    19    1
     2    19    20    2
     3    20    21    1
     4    21    22    2
     5    22    23    1
     6    23    24    2
     7    24     1    1
     8     1     2    2
     9     1     3   am
    10     3     4    1
    11     4     5    1
    12     5     6    1
    13     6     7    1
    14     7     8    1
    15     6     9    1
    16     9    10    1
    17    10    11    2
    18    10    12    1
    19    12    13   ar
    20    13    14   ar
    21    14    15   ar
    22    15    16   ar
    23    16    28    1
    24    28    29    1
    25    28    30    1
    26    13    17    1
    27    24    25    1
    28    25    26    1
    29    26    27    2
    30    27    19    1
    31    26    21    1
    32     8     3    1
    33    16    12   ar
    34    17     6    1
@<TRIPOS>MOLECULE
*****
 30 34 0 0 0
SMALL
GASTEIGER

@<TRIPOS>ATOM
      1 C         143.7005  141.5712  160.7390 C.2     1  UNL1        0.2455
      2 O         144.8909  142.4328  160.4378 O.2     1  UNL1       -0.2702
      3 N         143.1710  141.4867  162.1399 N.am    1  UNL1       -0.2763
      4 C         143.8318  142.2638  163.2396 C.3     1  UNL1        0.0937
      5 C         143.3023  142.1794  164.6404 C.3     1  UNL1        0.0223
      6 C         142.1119  141.3178  164.9416 C.3     1  UNL1        0.0148
      7 C         141.4511  140.5406  163.8419 C.3     1  UNL1        0.0223
      8 C         141.9806  140.6251  162.4411 C.3     1  UNL1        0.0937
      9 C         142.7728  142.0949  166.0414 C.3     1  UNL1        0.0712
     10 C         142.2432  142.0105  167.4422 C.2     1  UNL1        0.1899
     11 O         142.9041  142.7876  168.5420 O.2     1  UNL1       -0.2898
     12 C         141.0529  141.1489  167.7434 C.ar    1  UNL1        0.1099
     13 C         140.3920  140.3717  166.6437 C.ar    1  UNL1        0.0188
     14 C         139.2435  139.6121  167.2384 C.ar    1  UNL1        0.1174
     15 N         139.1944  139.9198  168.7057 N.ar    1  UNL1       -0.1680
     16 N         140.3127  140.8695  169.0178 N.ar    1  UNL1       -0.2503
     17 C         140.9216  140.4562  165.2428 C.3     1  UNL1        0.0301
     18 C         141.8203  135.6732  155.9118 C.3     1  UNL1        0.1367
     19 C         141.9844  136.9489  156.6836 C.2     1  UNL1        0.3518
     20 N         141.2414  138.2289  156.4393 N.2     1  UNL1       -0.0350
     21 C         141.7180  139.2397  157.4399 C.2     1  UNL1        0.2317
     22 C         141.3413  140.6721  157.6770 C.2     1  UNL1        0.0500
     23 C         142.0021  141.4493  158.7767 C.2     1  UNL1        0.0046
     24 C         143.0397  140.7940  159.6393 C.2     1  UNL1        0.0399
     25 C         143.4164  139.3615  159.4022 C.3     1  UNL1        0.1086
     26 C         142.7556  138.5844  158.3025 C.2     1  UNL1        0.2176
     27 N         142.9202  137.1686  157.8351 N.2     1  UNL1       -0.0389
     28 C         140.6344  141.4399  170.3674 C.3     1  UNL1        0.1054
     29 C         139.9246  142.6699  170.8503 C.3     1  UNL1        0.0263
     30 C         141.6658  140.7801  171.2340 C.3     1  UNL1        0.0263
@<TRIPOS>BOND
     1    18    19    1
     2    19    20    2
     3    20    21    1
     4    21    22    2
     5    22    23    1
     6    23    24    2
     7    24     1    1
     8     1     2    2
     9     1     3   am
    10     3     4    1
    11     4     5    1
    12     5     6    1
    13     6     7    1
    14     7     8    1
    15     6     9    1
    16     9    10    1
    17    10    11    2
    18    10    12    1
    19    12    13   ar
    20    13    14   ar
    21    14    15   ar
    22    15    16   ar
    23    16    28    1
    24    28    29    1
    25    28    30    1
    26    13    17    1
    27    24    25    1
    28    25    26    1
    29    26    27    2
    30    27    19    1
    31    26    21    1
    32     8     3    1
    33    16    12   ar
    34    17     6    1
@<TRIPOS>MOLECULE
*****
 30 34 0 0 0
SMALL
GASTEIGER

@<TRIPOS>ATOM
      1 C         143.0475  138.3848  156.9904 C.2     1  UNL1        0.2455
      2 O         144.1870  139.0710  156.2972 O.2     1  UNL1       -0.2702
      3 N         142.4257  139.0059  158.2060 N.am    1  UNL1       -0.2763
      4 C         142.9435  140.3131  158.7284 C.3     1  UNL1        0.0937
      5 C         142.3218  140.9342  159.9440 C.3     1  UNL1        0.0223
      6 C         141.1822  140.2480  160.6372 C.3     1  UNL1        0.0148
      7 C         140.6644  138.9408  160.1148 C.3     1  UNL1        0.0223
      8 C         141.2861  138.3197  158.8992 C.3     1  UNL1        0.0937
      9 C         141.7000  141.5553  161.1596 C.3     1  UNL1        0.0712
     10 C         141.0783  142.1764  162.3752 C.2     1  UNL1        0.1899
     11 O         141.5961  143.4837  162.8977 O.2     1  UNL1       -0.2898
     12 C         139.9387  141.4902  163.0684 C.ar    1  UNL1        0.1099
     13 C         139.4209  140.1830  162.5460 C.ar    1  UNL1        0.0188
     14 C         138.2938  139.7432  163.4327 C.ar    1  UNL1        0.1174
     15 N         138.1150  140.7787  164.5031 N.ar    1  UNL1       -0.1680
     16 N         139.1316  141.8584  164.2779 N.ar    1  UNL1       -0.2503
     17 C         140.0427  139.5618  161.3304 C.3     1  UNL1        0.0301
     18 C         142.2139  130.6687  155.8115 C.3     1  UNL1        0.1367
     19 C         142.1545  132.1670  155.8509 C.2     1  UNL1        0.3518
     20 N         141.1986  133.0320  155.0841 N.2     1  UNL1       -0.0350
     21 C         141.4940  134.4629  155.4233 C.2     1  UNL1        0.2317
     22 C         140.8734  135.7508  154.9691 C.2     1  UNL1        0.0500
     23 C         141.3912  137.0581  155.4915 C.2     1  UNL1        0.0046
     24 C         142.5296  137.0775  156.4680 C.2     1  UNL1        0.0399
     25 C         143.1502  135.7896  156.9222 C.3     1  UNL1        0.1086
     26 C         142.6324  134.4824  156.3998 C.2     1  UNL1        0.2176
     27 N         143.0406  133.0634  156.6641 N.2     1  UNL1       -0.0389
     28 C         139.3099  143.0902  165.1154 C.3     1  UNL1        0.1054
     29 C         140.2882  143.0889  166.2524 C.3     1  UNL1        0.0263
     30 C         138.5098  144.3231  164.8157 C.3     1  UNL1        0.0263
@<TRIPOS>BOND
     1    18    19    1
     2    19    20    2
     3    20    21    1
     4    21    22    2
     5    22    23    1
     6    23    24    2
     7    24     1    1
     8     1     2    2
     9     1     3   am
    10     3     4    1
    11     4     5    1
    12     5     6    1
    13     6     7    1
    14     7     8    1
    15     6     9    1
    16     9    10    1
    17    10    11    2
    18    10    12    1
    19    12    13   ar
    20    13    14   ar
    21    14    15   ar
    22    15    16   ar
    23    16    28    1
    24    28    29    1
    25    28    30    1
    26    13    17    1
    27    24    25    1
    28    25    26    1
    29    26    27    2
    30    27    19    1
    31    26    21    1
    32     8     3    1
    33    16    12   ar
    34    17     6    1
@<TRIPOS>MOLECULE
*****
 30 34 0 0 0
SMALL
GASTEIGER

@<TRIPOS>ATOM
      1 C         140.4515  138.3347  163.3590 C.2     1  UNL1        0.2455
      2 O         140.7884  136.9047  163.0563 O.2     1  UNL1       -0.2702
      3 N         140.5302  139.3692  162.2756 N.am    1  UNL1       -0.2763
      4 C         140.9457  138.9737  160.8896 C.3     1  UNL1        0.0937
      5 C         141.0243  140.0082  159.8064 C.3     1  UNL1        0.0223
      6 C         140.6875  141.4382  160.1090 C.3     1  UNL1        0.0148
      7 C         140.2719  141.8337  161.4950 C.3     1  UNL1        0.0223
      8 C         140.1933  140.7992  162.5783 C.3     1  UNL1        0.0937
      9 C         141.1030  141.0428  158.7230 C.3     1  UNL1        0.0712
     10 C         141.1816  142.0773  157.6397 C.2     1  UNL1        0.1899
     11 O         141.5972  141.6819  156.2537 O.2     1  UNL1       -0.2898
     12 C         140.8448  143.5073  157.9424 C.ar    1  UNL1        0.1099
     13 C         140.4292  143.9028  159.3283 C.ar    1  UNL1        0.0188
     14 C         140.1590  145.3782  159.3281 C.ar    1  UNL1        0.1174
     15 N         140.4076  145.8947  157.9418 N.ar    1  UNL1       -0.1680
     16 N         140.8314  144.7384  157.0855 N.ar    1  UNL1       -0.2503
     17 C         140.3506  142.8682  160.4117 C.3     1  UNL1        0.0301
     18 C         140.8169  140.8794  170.7761 C.3     1  UNL1        0.1367
     19 C         140.4656  140.3643  169.4118 C.2     1  UNL1        0.3518
     20 N         139.0944  139.9797  168.9408 N.2     1  UNL1       -0.0350
     21 C         139.2050  139.5211  167.5169 C.2     1  UNL1        0.2317
     22 C         138.1809  139.0245  166.5399 C.2     1  UNL1        0.0500
     23 C         138.5964  138.6290  165.1539 C.2     1  UNL1        0.0046
     24 C         140.0360  138.7301  164.7449 C.2     1  UNL1        0.0399
     25 C         141.0601  139.2268  165.7220 C.3     1  UNL1        0.1086
     26 C         140.6446  139.6223  167.1079 C.2     1  UNL1        0.2176
     27 N         141.4237  140.1434  168.2790 N.2     1  UNL1       -0.0389
     28 C         141.1805  144.8019  155.6280 C.3     1  UNL1        0.1054
     29 C         142.6103  144.9673  155.2059 C.3     1  UNL1        0.0263
     30 C         140.0998  144.7001  154.5928 C.3     1  UNL1        0.0263
@<TRIPOS>BOND
     1    18    19    1
     2    19    20    2
     3    20    21    1
     4    21    22    2
     5    22    23    1
     6    23    24    2
     7    24     1    1
     8     1     2    2
     9     1     3   am
    10     3     4    1
    11     4     5    1
    12     5     6    1
    13     6     7    1
    14     7     8    1
    15     6     9    1
    16     9    10    1
    17    10    11    2
    18    10    12    1
    19    12    13   ar
    20    13    14   ar
    21    14    15   ar
    22    15    16   ar
    23    16    28    1
    24    28    29    1
    25    28    30    1
    26    13    17    1
    27    24    25    1
    28    25    26    1
    29    26    27    2
    30    27    19    1
    31    26    21    1
    32     8     3    1
    33    16    12   ar
    34    17     6    1
@<TRIPOS>MOLECULE
*****
 30 34 0 0 0
SMALL
GASTEIGER

@<TRIPOS>ATOM
      1 C         143.8354  139.4478  164.6288 C.2     1  UNL1        0.2455
      2 O         145.2108  138.9522  164.9641 O.2     1  UNL1       -0.2702
      3 N         143.2831  139.2509  163.2481 N.am    1  UNL1       -0.2763
      4 C         144.1064  138.5584  162.2028 C.3     1  UNL1        0.0937
      5 C         143.5541  138.3615  160.8221 C.3     1  UNL1        0.0223
      6 C         142.1787  138.8571  160.4868 C.3     1  UNL1        0.0148
      7 C         141.3554  139.5496  161.5321 C.3     1  UNL1        0.0223
      8 C         141.9077  139.7465  162.9127 C.3     1  UNL1        0.0937
      9 C         143.0019  138.1646  159.4414 C.3     1  UNL1        0.0712
     10 C         142.4496  137.9677  158.0607 C.2     1  UNL1        0.1899
     11 O         143.2729  137.2752  157.0154 O.2     1  UNL1       -0.2898
     12 C         141.0742  138.4634  157.7254 C.ar    1  UNL1        0.1099
     13 C         140.2510  139.1559  158.7707 C.ar    1  UNL1        0.0188
     14 C         138.9381  139.5339  158.1515 C.ar    1  UNL1        0.1174
     15 N         138.9499  139.0750  156.7235 N.ar    1  UNL1       -0.1680
     16 N         140.2701  138.4134  156.4601 N.ar    1  UNL1       -0.2503
     17 C         140.8032  139.3528  160.1514 C.3     1  UNL1        0.0301
     18 C         138.5854  140.6717  170.3352 C.3     1  UNL1        0.1367
     19 C         139.6437  140.7190  169.2732 C.2     1  UNL1        0.3518
     20 N         140.4168  141.9336  168.8524 N.2     1  UNL1       -0.0350
     21 C         141.3656  141.5253  167.7648 C.2     1  UNL1        0.2317
     22 C         142.3755  142.2998  166.9708 C.2     1  UNL1        0.0500
     23 C         143.1988  141.6073  165.9254 C.2     1  UNL1        0.0046
     24 C         143.0122  140.1403  165.6741 C.2     1  UNL1        0.0399
     25 C         142.0023  139.3658  166.4681 C.3     1  UNL1        0.1086
     26 C         141.1790  140.0583  167.5134 C.2     1  UNL1        0.2176
     27 N         140.1148  139.5600  168.4457 N.2     1  UNL1       -0.0389
     28 C         140.7091  137.8081  155.1597 C.3     1  UNL1        0.1054
     29 C         141.3544  138.6667  154.1128 C.3     1  UNL1        0.0263
     30 C         140.5029  136.3440  154.9065 C.3     1  UNL1        0.0263
@<TRIPOS>BOND
     1    18    19    1
     2    19    20    2
     3    20    21    1
     4    21    22    2
     5    22    23    1
     6    23    24    2
     7    24     1    1
     8     1     2    2
     9     1     3   am
    10     3     4    1
    11     4     5    1
    12     5     6    1
    13     6     7    1
    14     7     8    1
    15     6     9    1
    16     9    10    1
    17    10    11    2
    18    10    12    1
    19    12    13   ar
    20    13    14   ar
    21    14    15   ar
    22    15    16   ar
    23    16    28    1
    24    28    29    1
    25    28    30    1
    26    13    17    1
    27    24    25    1
    28    25    26    1
    29    26    27    2
    30    27    19    1
    31    26    21    1
    32     8     3    1
    33    16    12   ar
    34    17     6    1
@<TRIPOS>MOLECULE
*****
 30 34 0 0 0
SMALL
GASTEIGER

@<TRIPOS>ATOM
      1 C         139.2578  145.3203  155.4538 C.2     1  UNL1        0.2455
      2 O         138.7058  144.3267  154.4750 O.2     1  UNL1       -0.2702
      3 N         139.6250  144.8823  156.8407 N.am    1  UNL1       -0.2763
      4 C         139.4402  143.4508  157.2488 C.3     1  UNL1        0.0937
      5 C         139.8073  143.0128  158.6356 C.3     1  UNL1        0.0223
      6 C         140.3594  144.0064  159.6144 C.3     1  UNL1        0.0148
      7 C         140.5442  145.4380  159.2064 C.3     1  UNL1        0.0223
      8 C         140.1770  145.8759  157.8195 C.3     1  UNL1        0.0937
      9 C         140.1745  142.5749  160.0225 C.3     1  UNL1        0.0712
     10 C         140.5417  142.1369  161.4094 C.2     1  UNL1        0.1899
     11 O         140.3568  140.7053  161.8175 O.2     1  UNL1       -0.2898
     12 C         141.0937  143.1305  162.3882 C.ar    1  UNL1        0.1099
     13 C         141.2786  144.5620  161.9801 C.ar    1  UNL1        0.0188
     14 C         141.8404  145.3095  163.1529 C.ar    1  UNL1        0.1174
     15 N         142.0028  144.3400  164.2859 N.ar    1  UNL1       -0.1680
     16 N         141.5413  142.9933  163.8132 N.ar    1  UNL1       -0.2503
     17 C         140.9114  145.0000  160.5932 C.3     1  UNL1        0.0301
     18 C         138.4172  153.1191  155.1461 C.3     1  UNL1        0.1367
     19 C         138.7726  151.6695  154.9968 C.2     1  UNL1        0.3518
     20 N         139.7788  151.1024  154.0396 N.2     1  UNL1       -0.0350
     21 C         139.8124  149.6149  154.2297 C.2     1  UNL1        0.2317
     22 C         140.6129  148.5357  153.5631 C.2     1  UNL1        0.0500
     23 C         140.4281  147.1041  153.9712 C.2     1  UNL1        0.0046
     24 C         139.4427  146.7518  155.0458 C.2     1  UNL1        0.0399
     25 C         138.6421  147.8311  155.7124 C.3     1  UNL1        0.1086
     26 C         138.8270  149.2626  155.3044 C.2     1  UNL1        0.2176
     27 N         138.1844  150.5324  155.7784 N.2     1  UNL1       -0.0389
     28 C         141.5295  141.7309  164.6234 C.3     1  UNL1        0.1054
     29 C         142.7512  140.8623  164.6764 C.3     1  UNL1        0.0263
     30 C         140.2959  141.3371  165.3805 C.3     1  UNL1        0.0263
@<TRIPOS>BOND
     1    18    19    1
     2    19    20    2
     3    20    21    1
     4    21    22    2
     5    22    23    1
     6    23    24    2
     7    24     1    1
     8     1     2    2
     9     1     3   am
    10     3     4    1
    11     4     5    1
    12     5     6    1
    13     6     7    1
    14     7     8    1
    15     6     9    1
    16     9    10    1
    17    10    11    2
    18    10    12    1
    19    12    13   ar
    20    13    14   ar
    21    14    15   ar
    22    15    16   ar
    23    16    28    1
    24    28    29    1
    25    28    30    1
    26    13    17    1
    27    24    25    1
    28    25    26    1
    29    26    27    2
    30    27    19    1
    31    26    21    1
    32     8     3    1
    33    16    12   ar
    34    17     6    1
@<TRIPOS>MOLECULE
*****
 30 34 0 0 0
SMALL
GASTEIGER

@<TRIPOS>ATOM
      1 C         141.4917  138.5005  157.4648 C.2     1  UNL1        0.2455
      2 O         140.3307  139.2739  156.9134 O.2     1  UNL1       -0.2702
      3 N         141.8160  137.1422  156.9171 N.am    1  UNL1       -0.2763
      4 C         140.9794  136.5574  155.8180 C.3     1  UNL1        0.0937
      5 C         141.3037  135.1991  155.2704 C.3     1  UNL1        0.0223
      6 C         142.4647  134.4257  155.8219 C.3     1  UNL1        0.0148
      7 C         143.3013  135.0106  156.9209 C.3     1  UNL1        0.0223
      8 C         142.9769  136.3688  157.4686 C.3     1  UNL1        0.0937
      9 C         141.6280  133.8408  154.7227 C.3     1  UNL1        0.0712
     10 C         141.9524  132.4826  154.1751 C.2     1  UNL1        0.1899
     11 O         141.1158  131.8977  153.0759 O.2     1  UNL1       -0.2898
     12 C         143.1133  131.7092  154.7265 C.ar    1  UNL1        0.1099
     13 C         143.9499  132.2940  155.8256 C.ar    1  UNL1        0.0188
     14 C         145.0240  131.3043  156.1674 C.ar    1  UNL1        0.1174
     15 N         144.8512  130.1078  155.2794 N.ar    1  UNL1       -0.1680
     16 N         143.6703  130.3580  154.3890 N.ar    1  UNL1       -0.2503
     17 C         143.6256  133.6523  156.3733 C.3     1  UNL1        0.0301
     18 C         144.8476  139.5477  164.4837 C.3     1  UNL1        0.1367
     19 C         144.3534  139.5837  163.0679 C.2     1  UNL1        0.3518
     20 N         144.7240  140.6015  162.0302 N.2     1  UNL1       -0.0350
     21 C         144.0015  140.2550  160.7622 C.2     1  UNL1        0.2317
     22 C         143.9821  140.9021  159.4091 C.2     1  UNL1        0.0500
     23 C         143.1455  140.3173  158.3099 C.2     1  UNL1        0.0046
     24 C         142.3283  139.0853  158.5639 C.2     1  UNL1        0.0399
     25 C         142.3477  138.4382  159.9171 C.3     1  UNL1        0.1086
     26 C         143.1843  139.0231  161.0162 C.2     1  UNL1        0.2176
     27 N         143.4018  138.6082  162.4412 N.2     1  UNL1       -0.0389
     28 C         143.1396  129.4214  153.3443 C.3     1  UNL1        0.1054
     29 C         141.9867  128.5168  153.6641 C.3     1  UNL1        0.0263
     30 C         143.7620  129.3895  151.9798 C.3     1  UNL1        0.0263
@<TRIPOS>BOND
     1    18    19    1
     2    19    20    2
     3    20    21    1
     4    21    22    2
     5    22    23    1
     6    23    24    2
     7    24     1    1
     8     1     2    2
     9     1     3   am
    10     3     4    1
    11     4     5    1
    12     5     6    1
    13     6     7    1
    14     7     8    1
    15     6     9    1
    16     9    10    1
    17    10    11    2
    18    10    12    1
    19    12    13   ar
    20    13    14   ar
    21    14    15   ar
    22    15    16   ar
    23    16    28    1
    24    28    29    1
    25    28    30    1
    26    13    17    1
    27    24    25    1
    28    25    26    1
    29    26    27    2
    30    27    19    1
    31    26    21    1
    32     8     3    1
    33    16    12   ar
    34    17     6    1
