@<TRIPOS>MOLECULE
*****
 34 37 0 0 0
SMALL
GASTEIGER

@<TRIPOS>ATOM
      1 N         137.4133  140.7654  161.4600 N.pl3   1  UNL1       -0.2825
      2 H         136.4377  140.7793  161.3291 H       1  UNL1        0.1551
      3 C         141.2288  144.4287  160.7924 C.ar    1  UNL1        0.1554
      4 N         141.7770  145.0020  159.5192 N.ar    1  UNL1       -0.1646
      5 N         141.0545  144.3591  158.3726 N.ar    1  UNL1       -0.2487
      6 C         141.2860  144.6378  156.9171 C.3     1  UNL1        0.1537
      7 C         140.0598  143.3885  158.9371 C.ar    1  UNL1        0.0796
      8 C         139.0699  142.4711  158.2826 C.ar    1  UNL1        0.0201
      9 C         138.1878  141.5968  159.1236 C.ar    1  UNL1        0.0162
     10 C         138.2955  141.6398  160.6191 C.ar    1  UNL1        0.0506
     11 C         139.2854  142.5572  161.2736 C.ar    1  UNL1        0.0179
     12 C         140.1676  143.4316  160.4326 C.ar    1  UNL1        0.0423
     13 C         143.5629  145.2362  163.8989 C.3     1  UNL1        0.1110
     14 N         143.1264  144.8756  162.5099 N.am    1  UNL1       -0.2979
     15 C         141.6653  144.7893  162.1814 C.2     1  UNL1        0.2654
     16 O         140.6408  145.0636  163.2421 O.2     1  UNL1       -0.2684
     17 H         143.7989  144.6956  161.8137 H       1  UNL1        0.1498
     18 C         138.0176  139.8698  162.5006 C.ar    1  UNL1        0.2221
     19 N         138.2986  138.4315  162.1806 N.ar    1  UNL1       -0.2119
     20 C         138.9029  137.5359  163.2212 C.ar    1  UNL1        0.1050
     21 C         139.2263  138.0786  164.5817 C.ar    1  UNL1        0.0596
     22 C         138.9453  139.5169  164.9016 C.ar    1  UNL1        0.1683
     23 N         138.3410  140.4125  163.8611 N.ar    1  UNL1       -0.1944
     24 N         139.2686  140.0597  166.2620 N.ar    1  UNL1       -0.2080
     25 C         139.9315  141.3736  166.5525 C.ar    1  UNL1        0.1039
     26 C         140.0584  141.5097  168.0409 C.ar    1  UNL1        0.0676
     27 C         139.4740  140.2799  168.6703 C.ar    1  UNL1        0.2410
     28 N         138.9859  139.3838  167.5709 N.ar    1  UNL1       -0.1263
     29 O         139.3921  139.9962  170.1410 O.3     1  UNL1       -0.4553
     30 C         140.6458  139.7628  170.9307 C.3     1  UNL1        0.2543
     31 C         140.6635  142.6716  168.7715 C.3     1  UNL1        0.1056
     32 N         142.1246  142.6656  169.1109 N.3     1  UNL1       -0.2663
     33 C         142.5796  143.0926  170.4749 C.3     1  UNL1        0.0899
     34 C         143.1308  142.2325  168.0860 C.3     1  UNL1        0.0899
@<TRIPOS>BOND
     1    13    14    1
     2    14    15   am
     3    15    16    2
     4    15     3    1
     5     3     4   ar
     6     4     5   ar
     7     5     6    1
     8     5     7   ar
     9     7     8   ar
    10     8     9   ar
    11     9    10   ar
    12    10     1    1
    13     1    18    1
    14    18    19   ar
    15    19    20   ar
    16    20    21   ar
    17    21    22   ar
    18    22    24    1
    19    24    25   ar
    20    25    26   ar
    21    26    31    1
    22    31    32    1
    23    32    33    1
    24    32    34    1
    25    26    27   ar
    26    27    29    1
    27    29    30    1
    28    27    28   ar
    29    22    23   ar
    30    10    11   ar
    31    11    12   ar
    32    12     3   ar
    33    12     7   ar
    34    23    18   ar
    35    28    24   ar
    36    14    17    1
    37     1     2    1
@<TRIPOS>MOLECULE
*****
 34 37 0 0 0
SMALL
GASTEIGER

@<TRIPOS>ATOM
      1 N         140.6383  145.7135  161.6744 N.pl3   1  UNL1       -0.2825
      2 H         140.7037  146.6934  161.7432 H       1  UNL1        0.1551
      3 C         144.1833  142.0632  160.0833 C.ar    1  UNL1        0.1554
      4 N         144.6380  141.7295  158.6933 N.ar    1  UNL1       -0.1646
      5 N         143.9076  142.6269  157.7388 N.ar    1  UNL1       -0.2487
      6 C         144.0571  142.6346  156.2463 C.3     1  UNL1        0.1537
      7 C         143.0016  143.5152  158.5387 C.ar    1  UNL1        0.0796
      8 C         142.0434  144.5963  158.1349 C.ar    1  UNL1        0.0201
      9 C         141.2557  145.3291  159.1801 C.ar    1  UNL1        0.0162
     10 C         141.4261  144.9807  160.6291 C.ar    1  UNL1        0.0506
     11 C         142.3842  143.8996  161.0329 C.ar    1  UNL1        0.0179
     12 C         143.1720  143.1669  159.9877 C.ar    1  UNL1        0.0423
     13 C         145.8690  141.5562  163.6402 C.3     1  UNL1        0.1110
     14 N         145.3954  142.2111  162.3766 N.am    1  UNL1       -0.2979
     15 C         144.6569  141.4083  161.3469 C.2     1  UNL1        0.2654
     16 O         144.3920  139.9506  161.5810 O.2     1  UNL1       -0.2684
     17 H         145.5694  143.1679  162.2230 H       1  UNL1        0.1498
     18 C         139.7508  144.9533  162.6148 C.ar    1  UNL1        0.2221
     19 N         138.2606  145.0146  162.4543 N.ar    1  UNL1       -0.2119
     20 C         137.3731  144.2543  163.3948 C.ar    1  UNL1        0.1050
     21 C         137.9758  143.4328  164.4956 C.ar    1  UNL1        0.0596
     22 C         139.4659  143.3715  164.6560 C.ar    1  UNL1        0.1683
     23 N         140.3534  144.1317  163.7157 N.ar    1  UNL1       -0.1944
     24 N         140.0685  142.5499  165.7569 N.ar    1  UNL1       -0.2080
     25 C         140.2480  142.9815  167.1822 C.ar    1  UNL1        0.1039
     26 C         140.8879  141.8509  167.9319 C.ar    1  UNL1        0.0676
     27 C         141.1039  140.7204  166.9698 C.ar    1  UNL1        0.2410
     28 N         140.5976  141.1525  165.6256 N.ar    1  UNL1       -0.1263
     29 O         141.7185  139.3912  167.2950 O.3     1  UNL1       -0.4553
     30 C         143.0873  139.0525  166.7833 C.3     1  UNL1        0.2543
     31 C         141.2484  141.8507  169.3879 C.3     1  UNL1        0.1056
     32 N         142.6280  141.4493  169.8189 N.3     1  UNL1       -0.2663
     33 C         143.7888  142.3651  169.5664 C.3     1  UNL1        0.0899
     34 C         142.8467  140.1320  170.5023 C.3     1  UNL1        0.0899
@<TRIPOS>BOND
     1    13    14    1
     2    14    15   am
     3    15    16    2
     4    15     3    1
     5     3     4   ar
     6     4     5   ar
     7     5     6    1
     8     5     7   ar
     9     7     8   ar
    10     8     9   ar
    11     9    10   ar
    12    10     1    1
    13     1    18    1
    14    18    19   ar
    15    19    20   ar
    16    20    21   ar
    17    21    22   ar
    18    22    24    1
    19    24    25   ar
    20    25    26   ar
    21    26    31    1
    22    31    32    1
    23    32    33    1
    24    32    34    1
    25    26    27   ar
    26    27    29    1
    27    29    30    1
    28    27    28   ar
    29    22    23   ar
    30    10    11   ar
    31    11    12   ar
    32    12     3   ar
    33    12     7   ar
    34    23    18   ar
    35    28    24   ar
    36    14    17    1
    37     1     2    1
@<TRIPOS>MOLECULE
*****
 34 37 0 0 0
SMALL
GASTEIGER

@<TRIPOS>ATOM
      1 N         137.3364  140.1408  162.2836 N.pl3   1  UNL1       -0.2825
      2 H         136.3930  140.2508  162.5429 H       1  UNL1        0.1551
      3 C         139.8473  143.7027  159.2123 C.ar    1  UNL1        0.1554
      4 N         140.0370  143.7013  157.7244 N.ar    1  UNL1       -0.1646
      5 N         139.3767  142.4721  157.1741 N.ar    1  UNL1       -0.2487
      6 C         139.3236  142.0715  155.7295 C.3     1  UNL1        0.1537
      7 C         138.7789  141.7137  158.3218 C.ar    1  UNL1        0.0796
      8 C         138.0072  140.4288  158.3827 C.ar    1  UNL1        0.0201
      9 C         137.5264  139.9046  159.7032 C.ar    1  UNL1        0.0162
     10 C         137.8172  140.6652  160.9630 C.ar    1  UNL1        0.0506
     11 C         138.5889  141.9500  160.9021 C.ar    1  UNL1        0.0179
     12 C         139.0697  142.4743  159.5816 C.ar    1  UNL1        0.0423
     13 C         139.9064  146.4252  162.0994 C.3     1  UNL1        0.1110
     14 N         139.4064  145.3791  161.1477 N.am    1  UNL1       -0.2979
     15 C         140.3473  144.7488  160.1640 C.2     1  UNL1        0.2654
     16 O         141.7880  145.1647  160.1320 O.2     1  UNL1       -0.2684
     17 H         138.4607  145.1061  161.1687 H       1  UNL1        0.1498
     18 C         138.2928  139.4490  163.2090 C.ar    1  UNL1        0.2221
     19 N         139.1880  138.3639  162.6883 N.ar    1  UNL1       -0.2119
     20 C         140.1445  137.6721  163.6139 C.ar    1  UNL1        0.1050
     21 C         140.2057  138.0653  165.0601 C.ar    1  UNL1        0.0596
     22 C         139.3105  139.1504  165.5808 C.ar    1  UNL1        0.1683
     23 N         138.3540  139.8422  164.6553 N.ar    1  UNL1       -0.1944
     24 N         139.3717  139.5437  167.0270 N.ar    1  UNL1       -0.2080
     25 C         140.5164  140.2369  167.7046 C.ar    1  UNL1        0.1039
     26 C         140.1511  140.4344  169.1459 C.ar    1  UNL1        0.0676
     27 C         138.7806  139.8633  169.3592 C.ar    1  UNL1        0.2410
     28 N         138.2989  139.3128  168.0496 N.ar    1  UNL1       -0.1263
     29 O         138.0245  139.8457  170.6546 O.3     1  UNL1       -0.4553
     30 C         136.7878  139.0077  170.7899 C.3     1  UNL1        0.2543
     31 C         141.0062  141.0883  170.1906 C.3     1  UNL1        0.1056
     32 N         141.4304  142.5176  170.0257 N.3     1  UNL1       -0.2663
     33 C         142.8529  142.9130  170.2901 C.3     1  UNL1        0.0899
     34 C         140.4319  143.5515  169.5965 C.3     1  UNL1        0.0899
@<TRIPOS>BOND
     1    13    14    1
     2    14    15   am
     3    15    16    2
     4    15     3    1
     5     3     4   ar
     6     4     5   ar
     7     5     6    1
     8     5     7   ar
     9     7     8   ar
    10     8     9   ar
    11     9    10   ar
    12    10     1    1
    13     1    18    1
    14    18    19   ar
    15    19    20   ar
    16    20    21   ar
    17    21    22   ar
    18    22    24    1
    19    24    25   ar
    20    25    26   ar
    21    26    31    1
    22    31    32    1
    23    32    33    1
    24    32    34    1
    25    26    27   ar
    26    27    29    1
    27    29    30    1
    28    27    28   ar
    29    22    23   ar
    30    10    11   ar
    31    11    12   ar
    32    12     3   ar
    33    12     7   ar
    34    23    18   ar
    35    28    24   ar
    36    14    17    1
    37     1     2    1
@<TRIPOS>MOLECULE
*****
 34 37 0 0 0
SMALL
GASTEIGER

@<TRIPOS>ATOM
      1 N         142.4093  144.8821  161.7565 N.pl3   1  UNL1       -0.2825
      2 H         142.4758  145.8332  162.0022 H       1  UNL1        0.1551
      3 C         138.4890  141.8682  159.7638 C.ar    1  UNL1        0.1554
      4 N         137.8788  141.8949  158.3938 N.ar    1  UNL1       -0.1646
      5 N         138.5703  142.9628  157.5992 N.ar    1  UNL1       -0.2487
      6 C         138.2760  143.3325  156.1756 C.3     1  UNL1        0.1537
      7 C         139.6079  143.5960  158.4781 C.ar    1  UNL1        0.0796
      8 C         140.5920  144.7012  158.2330 C.ar    1  UNL1        0.0201
      9 C         141.5257  145.1299  159.3258 C.ar    1  UNL1        0.0162
     10 C         141.4755  144.4534  160.6637 C.ar    1  UNL1        0.0506
     11 C         140.4914  143.3482  160.9087 C.ar    1  UNL1        0.0179
     12 C         139.5576  142.9195  159.8159 C.ar    1  UNL1        0.0423
     13 C         138.0949  138.5852  161.9586 C.3     1  UNL1        0.1110
     14 N         138.4849  139.5022  160.8375 N.am    1  UNL1       -0.2979
     15 C         138.0990  140.9511  160.8849 C.2     1  UNL1        0.2654
     16 O         137.3232  141.4826  162.0534 O.2     1  UNL1       -0.2684
     17 H         138.9941  139.1533  160.0705 H       1  UNL1        0.1498
     18 C         143.2418  143.8619  162.4749 C.ar    1  UNL1        0.2221
     19 N         144.4411  143.2635  161.8013 N.ar    1  UNL1       -0.2119
     20 C         145.2735  142.2433  162.5198 C.ar    1  UNL1        0.1050
     21 C         144.9067  141.8214  163.9117 C.ar    1  UNL1        0.0596
     22 C         143.7074  142.4198  164.5852 C.ar    1  UNL1        0.1683
     23 N         142.8749  143.4400  163.8668 N.ar    1  UNL1       -0.1944
     24 N         143.3406  141.9980  165.9771 N.ar    1  UNL1       -0.2080
     25 C         142.6261  140.7346  166.3561 C.ar    1  UNL1        0.1039
     26 C         142.4677  140.7213  167.8477 C.ar    1  UNL1        0.0676
     27 C         143.0844  141.9763  168.3905 C.ar    1  UNL1        0.2410
     28 N         143.6238  142.7653  167.2344 N.ar    1  UNL1       -0.1263
     29 O         143.1500  142.3728  169.8357 O.3     1  UNL1       -0.4553
     30 C         142.1753  143.3723  170.3842 C.3     1  UNL1        0.2543
     31 C         141.8085  139.6423  168.6547 C.3     1  UNL1        0.1056
     32 N         140.4481  139.8713  169.2437 N.3     1  UNL1       -0.2663
     33 C         139.2399  139.8920  168.3550 C.3     1  UNL1        0.0899
     34 C         140.2960  140.0796  170.7214 C.3     1  UNL1        0.0899
@<TRIPOS>BOND
     1    13    14    1
     2    14    15   am
     3    15    16    2
     4    15     3    1
     5     3     4   ar
     6     4     5   ar
     7     5     6    1
     8     5     7   ar
     9     7     8   ar
    10     8     9   ar
    11     9    10   ar
    12    10     1    1
    13     1    18    1
    14    18    19   ar
    15    19    20   ar
    16    20    21   ar
    17    21    22   ar
    18    22    24    1
    19    24    25   ar
    20    25    26   ar
    21    26    31    1
    22    31    32    1
    23    32    33    1
    24    32    34    1
    25    26    27   ar
    26    27    29    1
    27    29    30    1
    28    27    28   ar
    29    22    23   ar
    30    10    11   ar
    31    11    12   ar
    32    12     3   ar
    33    12     7   ar
    34    23    18   ar
    35    28    24   ar
    36    14    17    1
    37     1     2    1
@<TRIPOS>MOLECULE
*****
 34 37 0 0 0
SMALL
GASTEIGER

@<TRIPOS>ATOM
      1 N         137.2961  140.8274  162.3708 N.pl3   1  UNL1       -0.2825
      2 H         136.3123  140.8613  162.3578 H       1  UNL1        0.1551
      3 C         138.6609  142.8736  157.6406 C.ar    1  UNL1        0.1554
      4 N         139.6769  143.9312  157.3254 N.ar    1  UNL1       -0.1646
      5 N         140.3050  144.3695  158.6151 N.ar    1  UNL1       -0.2487
      6 C         141.3734  145.4115  158.7660 C.3     1  UNL1        0.1537
      7 C         139.6773  143.5828  159.7273 C.ar    1  UNL1        0.0796
      8 C         139.8997  143.5889  161.2107 C.ar    1  UNL1        0.0201
      9 C         139.1060  142.6704  162.0918 C.ar    1  UNL1        0.0162
     10 C         138.0899  141.7459  161.4896 C.ar    1  UNL1        0.0506
     11 C         137.8674  141.7398  160.0062 C.ar    1  UNL1        0.0179
     12 C         138.6612  142.6583  159.1251 C.ar    1  UNL1        0.0423
     13 C         135.6923  142.0996  155.1229 C.3     1  UNL1        0.1110
     14 N         136.5568  142.8161  156.1175 N.am    1  UNL1       -0.2979
     15 C         137.7964  142.1571  156.6460 C.2     1  UNL1        0.2654
     16 O         138.1714  140.7816  156.1798 O.2     1  UNL1       -0.2684
     17 H         136.3107  143.7189  156.4235 H       1  UNL1        0.1498
     18 C         138.0013  139.8574  163.2716 C.ar    1  UNL1        0.2221
     19 N         138.5201  138.5626  162.7200 N.ar    1  UNL1       -0.2119
     20 C         139.2254  137.5925  163.6210 C.ar    1  UNL1        0.1050
     21 C         139.4118  137.9173  165.0735 C.ar    1  UNL1        0.0596
     22 C         138.8930  139.2121  165.6251 C.ar    1  UNL1        0.1683
     23 N         138.1878  140.1822  164.7242 N.ar    1  UNL1       -0.1944
     24 N         139.0794  139.5369  167.0775 N.ar    1  UNL1       -0.2080
     25 C         140.2805  140.1982  167.6861 C.ar    1  UNL1        0.1039
     26 C         140.0409  140.3274  169.1611 C.ar    1  UNL1        0.0676
     27 C         138.6917  139.7461  169.4643 C.ar    1  UNL1        0.2410
     28 N         138.0976  139.2575  168.1765 N.ar    1  UNL1       -0.1263
     29 O         138.0495  139.6671  170.8175 O.3     1  UNL1       -0.4553
     30 C         136.7051  139.0204  170.9731 C.3     1  UNL1        0.2543
     31 C         140.9847  140.9319  170.1580 C.3     1  UNL1        0.1056
     32 N         141.3527  142.3827  170.0585 N.3     1  UNL1       -0.2663
     33 C         142.7495  142.8258  170.3785 C.3     1  UNL1        0.0899
     34 C         140.3237  143.3903  169.6390 C.3     1  UNL1        0.0899
@<TRIPOS>BOND
     1    13    14    1
     2    14    15   am
     3    15    16    2
     4    15     3    1
     5     3     4   ar
     6     4     5   ar
     7     5     6    1
     8     5     7   ar
     9     7     8   ar
    10     8     9   ar
    11     9    10   ar
    12    10     1    1
    13     1    18    1
    14    18    19   ar
    15    19    20   ar
    16    20    21   ar
    17    21    22   ar
    18    22    24    1
    19    24    25   ar
    20    25    26   ar
    21    26    31    1
    22    31    32    1
    23    32    33    1
    24    32    34    1
    25    26    27   ar
    26    27    29    1
    27    29    30    1
    28    27    28   ar
    29    22    23   ar
    30    10    11   ar
    31    11    12   ar
    32    12     3   ar
    33    12     7   ar
    34    23    18   ar
    35    28    24   ar
    36    14    17    1
    37     1     2    1
@<TRIPOS>MOLECULE
*****
 34 37 0 0 0
SMALL
GASTEIGER

@<TRIPOS>ATOM
      1 N         144.5349  141.7434  160.2241 N.pl3   1  UNL1       -0.2825
      2 H         145.4998  141.8860  160.0902 H       1  UNL1        0.1551
      3 C         140.3466  145.0180  160.6230 C.ar    1  UNL1        0.1554
      4 N         139.7120  145.8745  159.5676 N.ar    1  UNL1       -0.1646
      5 N         140.4695  145.6719  158.2889 N.ar    1  UNL1       -0.2487
      6 C         140.1759  146.3347  156.9757 C.3     1  UNL1        0.1537
      7 C         141.5723  144.6902  158.5540 C.ar    1  UNL1        0.0796
      8 C         142.6358  144.1121  157.6681 C.ar    1  UNL1        0.0201
      9 C         143.6233  143.1299  158.2249 C.ar    1  UNL1        0.0162
     10 C         143.5473  142.7257  159.6674 C.ar    1  UNL1        0.0506
     11 C         142.4838  143.3038  160.5532 C.ar    1  UNL1        0.0179
     12 C         141.4963  144.2861  159.9965 C.ar    1  UNL1        0.0423
     13 C         138.0690  144.3807  163.8100 C.3     1  UNL1        0.1110
     14 N         138.5072  144.4867  162.3793 N.am    1  UNL1       -0.2979
     15 C         139.9084  144.9120  162.0536 C.2     1  UNL1        0.2654
     16 O         140.8712  145.2313  163.1585 O.2     1  UNL1       -0.2684
     17 H         137.8752  144.2771  161.6541 H       1  UNL1        0.1498
     18 C         144.0523  140.5440  160.9847 C.ar    1  UNL1        0.2221
     19 N         144.1166  139.1828  160.3580 N.ar    1  UNL1       -0.2119
     20 C         143.6340  137.9833  161.1187 C.ar    1  UNL1        0.1050
     21 C         143.0872  138.1452  162.5060 C.ar    1  UNL1        0.0596
     22 C         143.0229  139.5065  163.1327 C.ar    1  UNL1        0.1683
     23 N         143.5054  140.7059  162.3721 N.ar    1  UNL1       -0.1944
     24 N         142.4760  139.6684  164.5200 N.ar    1  UNL1       -0.2080
     25 C         143.2007  139.3554  165.7955 C.ar    1  UNL1        0.1039
     26 C         142.2810  139.6653  166.9392 C.ar    1  UNL1        0.0676
     27 C         140.9878  140.1698  166.3705 C.ar    1  UNL1        0.2410
     28 N         141.1084  140.1717  164.8754 N.ar    1  UNL1       -0.1263
     29 O         139.7853  140.5974  167.1587 O.3     1  UNL1       -0.4553
     30 C         138.8455  139.5671  167.7111 C.3     1  UNL1        0.2543
     31 C         142.5986  139.4997  168.3958 C.3     1  UNL1        0.1056
     32 N         142.6745  140.7029  169.2884 N.3     1  UNL1       -0.2663
     33 C         142.3517  140.5757  170.7477 C.3     1  UNL1        0.0899
     34 C         143.0732  142.0333  168.7215 C.3     1  UNL1        0.0899
@<TRIPOS>BOND
     1    13    14    1
     2    14    15   am
     3    15    16    2
     4    15     3    1
     5     3     4   ar
     6     4     5   ar
     7     5     6    1
     8     5     7   ar
     9     7     8   ar
    10     8     9   ar
    11     9    10   ar
    12    10     1    1
    13     1    18    1
    14    18    19   ar
    15    19    20   ar
    16    20    21   ar
    17    21    22   ar
    18    22    24    1
    19    24    25   ar
    20    25    26   ar
    21    26    31    1
    22    31    32    1
    23    32    33    1
    24    32    34    1
    25    26    27   ar
    26    27    29    1
    27    29    30    1
    28    27    28   ar
    29    22    23   ar
    30    10    11   ar
    31    11    12   ar
    32    12     3   ar
    33    12     7   ar
    34    23    18   ar
    35    28    24   ar
    36    14    17    1
    37     1     2    1
@<TRIPOS>MOLECULE
*****
 34 37 0 0 0
SMALL
GASTEIGER

@<TRIPOS>ATOM
      1 N         138.8839  137.6109  163.5242 N.pl3   1  UNL1       -0.2825
      2 H         138.7137  136.6426  163.5749 H       1  UNL1        0.1551
      3 C         141.9494  140.7758  166.5258 C.ar    1  UNL1        0.1554
      4 N         141.6967  141.3036  167.9070 N.ar    1  UNL1       -0.1646
      5 N         140.3667  140.7834  168.3658 N.ar    1  UNL1       -0.2487
      6 C         139.7196  141.0633  169.6898 C.3     1  UNL1        0.1537
      7 C         139.7974  139.9341  167.2683 C.ar    1  UNL1        0.0796
      8 C         138.5148  139.1644  167.1574 C.ar    1  UNL1        0.0201
      9 C         138.2103  138.3900  165.9094 C.ar    1  UNL1        0.0162
     10 C         139.1884  138.3853  164.7722 C.ar    1  UNL1        0.0506
     11 C         140.4711  139.1550  164.8830 C.ar    1  UNL1        0.0179
     12 C         140.7756  139.9294  166.1311 C.ar    1  UNL1        0.0423
     13 C         145.0816  140.1858  164.1612 C.3     1  UNL1        0.1110
     14 N         143.8682  139.9148  165.0003 N.am    1  UNL1       -0.2979
     15 C         143.1628  141.0468  165.6867 C.2     1  UNL1        0.2654
     16 O         143.6710  142.4498  165.5339 O.2     1  UNL1       -0.2684
     17 H         143.5347  138.9939  165.1006 H       1  UNL1        0.1498
     18 C         138.8386  138.3119  162.1988 C.ar    1  UNL1        0.2221
     19 N         137.6371  139.1272  161.8223 N.ar    1  UNL1       -0.2119
     20 C         137.5918  139.8282  160.4969 C.ar    1  UNL1        0.1050
     21 C         138.7480  139.7139  159.5481 C.ar    1  UNL1        0.0596
     22 C         139.9495  138.8986  159.9247 C.ar    1  UNL1        0.1683
     23 N         139.9948  138.1977  161.2500 N.ar    1  UNL1       -0.1944
     24 N         141.1056  138.7844  158.9759 N.ar    1  UNL1       -0.2080
     25 C         141.3122  137.6958  157.9648 C.ar    1  UNL1        0.1039
     26 C         142.5925  137.9772  157.2357 C.ar    1  UNL1        0.0676
     27 C         143.1772  139.2398  157.7962 C.ar    1  UNL1        0.2410
     28 N         142.2583  139.7386  158.8717 N.ar    1  UNL1       -0.1263
     29 O         144.4563  139.8895  157.3581 O.3     1  UNL1       -0.4553
     30 C         144.6950  141.3428  157.6423 C.3     1  UNL1        0.2543
     31 C         143.1842  137.1427  156.1387 C.3     1  UNL1        0.1056
     32 N         142.8207  135.6922  156.0205 N.3     1  UNL1       -0.2663
     33 C         143.5342  134.6699  156.8546 C.3     1  UNL1        0.0899
     34 C         141.7436  135.2641  155.0682 C.3     1  UNL1        0.0899
@<TRIPOS>BOND
     1    13    14    1
     2    14    15   am
     3    15    16    2
     4    15     3    1
     5     3     4   ar
     6     4     5   ar
     7     5     6    1
     8     5     7   ar
     9     7     8   ar
    10     8     9   ar
    11     9    10   ar
    12    10     1    1
    13     1    18    1
    14    18    19   ar
    15    19    20   ar
    16    20    21   ar
    17    21    22   ar
    18    22    24    1
    19    24    25   ar
    20    25    26   ar
    21    26    31    1
    22    31    32    1
    23    32    33    1
    24    32    34    1
    25    26    27   ar
    26    27    29    1
    27    29    30    1
    28    27    28   ar
    29    22    23   ar
    30    10    11   ar
    31    11    12   ar
    32    12     3   ar
    33    12     7   ar
    34    23    18   ar
    35    28    24   ar
    36    14    17    1
    37     1     2    1
@<TRIPOS>MOLECULE
*****
 34 37 0 0 0
SMALL
GASTEIGER

@<TRIPOS>ATOM
      1 N         138.4327  138.0834  163.6300 N.pl3   1  UNL1       -0.2825
      2 H         138.0884  137.1648  163.5477 H       1  UNL1        0.1551
      3 C         142.3606  139.2208  167.0509 C.ar    1  UNL1        0.1554
      4 N         142.2719  139.7702  168.4438 N.ar    1  UNL1       -0.1646
      5 N         140.8220  139.9723  168.7708 N.ar    1  UNL1       -0.2487
      6 C         140.2755  140.5054  170.0620 C.3     1  UNL1        0.1537
      7 C         140.0146  139.5478  167.5801 C.ar    1  UNL1        0.0796
      8 C         138.5365  139.5242  167.3264 C.ar    1  UNL1        0.0201
      9 C         138.0092  139.0360  166.0098 C.ar    1  UNL1        0.0162
     10 C         138.9601  138.5715  164.9467 C.ar    1  UNL1        0.0506
     11 C         140.4383  138.5952  165.2004 C.ar    1  UNL1        0.0179
     12 C         140.9655  139.0833  166.5171 C.ar    1  UNL1        0.0423
     13 C         145.2531  139.2537  164.3337 C.3     1  UNL1        0.1110
     14 N         143.9909  139.6042  165.0645 N.am    1  UNL1       -0.2979
     15 C         143.6227  138.8703  166.3200 C.2     1  UNL1        0.2654
     16 O         144.5168  137.7861  166.8444 O.2     1  UNL1       -0.2684
     17 H         143.4042  140.3158  164.7203 H       1  UNL1        0.1498
     18 C         138.4301  138.9949  162.4388 C.ar    1  UNL1        0.2221
     19 N         137.3724  138.8490  161.3851 N.ar    1  UNL1       -0.2119
     20 C         137.3698  139.7606  160.1938 C.ar    1  UNL1        0.1050
     21 C         138.4248  140.8179  160.0562 C.ar    1  UNL1        0.0596
     22 C         139.4825  140.9637  161.1098 C.ar    1  UNL1        0.1683
     23 N         139.4851  140.0523  162.3011 N.ar    1  UNL1       -0.1944
     24 N         140.5375  142.0211  160.9722 N.ar    1  UNL1       -0.2080
     25 C         141.7962  142.1213  161.7818 C.ar    1  UNL1        0.1039
     26 C         142.5557  143.3260  161.3108 C.ar    1  UNL1        0.0676
     27 C         141.7663  143.9703  160.2099 C.ar    1  UNL1        0.2410
     28 N         140.5190  143.1638  160.0007 N.ar    1  UNL1       -0.1263
     29 O         142.1559  145.2044  159.4515 O.3     1  UNL1       -0.4553
     30 C         141.7779  145.3476  158.0070 C.3     1  UNL1        0.2543
     31 C         143.8732  143.8027  161.8464 C.3     1  UNL1        0.1056
     32 N         144.0624  143.9793  163.3240 N.3     1  UNL1       -0.2663
     33 C         144.7715  142.9245  164.1206 C.3     1  UNL1        0.0899
     34 C         143.5426  145.2107  164.0048 C.3     1  UNL1        0.0899
@<TRIPOS>BOND
     1    13    14    1
     2    14    15   am
     3    15    16    2
     4    15     3    1
     5     3     4   ar
     6     4     5   ar
     7     5     6    1
     8     5     7   ar
     9     7     8   ar
    10     8     9   ar
    11     9    10   ar
    12    10     1    1
    13     1    18    1
    14    18    19   ar
    15    19    20   ar
    16    20    21   ar
    17    21    22   ar
    18    22    24    1
    19    24    25   ar
    20    25    26   ar
    21    26    31    1
    22    31    32    1
    23    32    33    1
    24    32    34    1
    25    26    27   ar
    26    27    29    1
    27    29    30    1
    28    27    28   ar
    29    22    23   ar
    30    10    11   ar
    31    11    12   ar
    32    12     3   ar
    33    12     7   ar
    34    23    18   ar
    35    28    24   ar
    36    14    17    1
    37     1     2    1
@<TRIPOS>MOLECULE
*****
 34 37 0 0 0
SMALL
GASTEIGER

@<TRIPOS>ATOM
      1 N         137.4970  140.4356  161.4841 N.pl3   1  UNL1       -0.2825
      2 H         136.5157  140.3605  161.5102 H       1  UNL1        0.1551
      3 C         140.3035  144.7607  160.1276 C.ar    1  UNL1        0.1554
      4 N         140.7193  145.2291  158.7646 N.ar    1  UNL1       -0.1646
      5 N         140.2015  144.2446  157.7583 N.ar    1  UNL1       -0.2487
      6 C         140.3869  144.3231  156.2718 C.3     1  UNL1        0.1537
      7 C         139.4657  143.1678  158.4993 C.ar    1  UNL1        0.0796
      8 C         138.7464  141.9381  158.0299 C.ar    1  UNL1        0.0201
      9 C         138.0902  141.0274  159.0248 C.ar    1  UNL1        0.0162
     10 C         138.1533  141.3464  160.4891 C.ar    1  UNL1        0.0506
     11 C         138.8725  142.5761  160.9585 C.ar    1  UNL1        0.0179
     12 C         139.5288  143.4868  159.9636 C.ar    1  UNL1        0.0423
     13 C         141.9772  145.5829  163.6309 C.3     1  UNL1        0.1110
     14 N         141.6718  144.8977  162.3320 N.am    1  UNL1       -0.2979
     15 C         140.6089  145.4460  161.4265 C.2     1  UNL1        0.2654
     16 O         139.8515  146.6794  161.8200 O.2     1  UNL1       -0.2684
     17 H         142.1690  144.0881  162.0737 H       1  UNL1        0.1498
     18 C         138.3358  139.6392  162.4391 C.ar    1  UNL1        0.2221
     19 N         138.2582  138.1412  162.4361 N.ar    1  UNL1       -0.2119
     20 C         139.0971  137.3449  163.3912 C.ar    1  UNL1        0.1050
     21 C         140.0135  138.0465  164.3492 C.ar    1  UNL1        0.0596
     22 C         140.0911  139.5445  164.3522 C.ar    1  UNL1        0.1683
     23 N         139.2523  140.3408  163.3972 N.ar    1  UNL1       -0.1944
     24 N         141.0075  140.2461  165.3103 N.ar    1  UNL1       -0.2080
     25 C         141.1096  139.9854  166.7839 C.ar    1  UNL1        0.1039
     26 C         142.1479  140.9098  167.3473 C.ar    1  UNL1        0.0676
     27 C         142.6875  141.7418  166.2218 C.ar    1  UNL1        0.2410
     28 N         141.9827  141.3316  164.9629 N.ar    1  UNL1       -0.1263
     29 O         143.7461  142.7985  166.3353 O.3     1  UNL1       -0.4553
     30 C         144.4790  143.2604  165.1109 C.3     1  UNL1        0.2543
     31 C         142.5721  140.9884  168.7839 C.3     1  UNL1        0.1056
     32 N         141.9442  141.9992  169.6972 N.3     1  UNL1       -0.2663
     33 C         140.4567  142.0141  169.8898 C.3     1  UNL1        0.0899
     34 C         142.8038  142.9952  170.4178 C.3     1  UNL1        0.0899
@<TRIPOS>BOND
     1    13    14    1
     2    14    15   am
     3    15    16    2
     4    15     3    1
     5     3     4   ar
     6     4     5   ar
     7     5     6    1
     8     5     7   ar
     9     7     8   ar
    10     8     9   ar
    11     9    10   ar
    12    10     1    1
    13     1    18    1
    14    18    19   ar
    15    19    20   ar
    16    20    21   ar
    17    21    22   ar
    18    22    24    1
    19    24    25   ar
    20    25    26   ar
    21    26    31    1
    22    31    32    1
    23    32    33    1
    24    32    34    1
    25    26    27   ar
    26    27    29    1
    27    29    30    1
    28    27    28   ar
    29    22    23   ar
    30    10    11   ar
    31    11    12   ar
    32    12     3   ar
    33    12     7   ar
    34    23    18   ar
    35    28    24   ar
    36    14    17    1
    37     1     2    1
