@<TRIPOS>MOLECULE
*****
 42 45 0 0 0
SMALL
GASTEIGER

@<TRIPOS>ATOM
      1 N         140.4458  140.9754  161.2193 N.am    1  UNL1       -0.2662
      2 C         140.2941  140.4361  162.6108 C.2     1  UNL1        0.3083
      3 O         140.8499  139.0866  162.9568 O.2     1  UNL1       -0.2521
      4 N         139.5865  141.2463  163.6561 N.am    1  UNL1       -0.2643
      5 H         140.0810  141.8612  160.9921 H       1  UNL1        0.1565
      6 H         139.2216  142.1321  163.4290 H       1  UNL1        0.1566
      7 C         142.5687  138.5447  158.0832 C.ar    1  UNL1        0.1409
      8 C         141.0695  138.5628  158.1305 C.ar    1  UNL1        0.0383
      9 C         140.3618  139.3731  159.1758 C.ar    1  UNL1        0.0201
     10 C         141.1534  140.1652  160.1739 C.ar    1  UNL1        0.0795
     11 C         142.6525  140.1470  160.1266 C.ar    1  UNL1        0.1565
     12 F         143.4440  140.9391  161.1246 F       1  UNL1       -0.2028
     13 C         143.3602  139.3367  159.0812 C.ar    1  UNL1        0.0678
     14 O         143.2763  137.7344  157.0378 O.3     1  UNL1       -0.4754
     15 C         142.4900  136.8568  156.1096 C.3     1  UNL1        0.2054
     16 N         142.6494  132.3831  156.5683 N.3     1  UNL1       -0.2727
     17 C         143.5541  133.2539  157.3888 C.3     1  UNL1        0.0722
     18 C         143.5010  134.7451  157.2359 C.3     1  UNL1        0.0211
     19 C         142.5431  135.3656  156.2625 C.3     1  UNL1        0.0465
     20 C         141.6384  134.4948  155.4420 C.3     1  UNL1        0.0211
     21 C         141.6916  133.0036  155.5949 C.3     1  UNL1        0.0722
     22 C         142.7025  130.8919  156.7212 C.3     1  UNL1        0.0720
     23 C         144.8578  129.9740  155.5977 C.3     1  UNL1        0.0014
     24 C         144.0269  130.1955  156.8267 C.3     1  UNL1        0.0160
     25 C         144.5203  129.7205  158.1612 C.3     1  UNL1        0.0014
     26 C         139.4347  140.7071  165.0475 C.ar    1  UNL1        0.1058
     27 C         138.2648  139.8328  165.3896 C.ar    1  UNL1        0.0211
     28 C         138.1130  139.2935  166.7811 C.ar    1  UNL1        0.0222
     29 C         139.1311  139.6285  167.8305 C.ar    1  UNL1        0.1022
     30 N         140.3010  140.5027  167.4884 N.ar    1  UNL1       -0.2088
     31 C         140.4528  141.0421  166.0969 C.ar    1  UNL1        0.2434
     32 O         141.6227  141.9163  165.7549 O.3     1  UNL1       -0.4354
     33 C         142.8775  141.3078  165.2024 C.ar    1  UNL1        0.1432
     34 C         143.1420  139.8422  165.3809 C.ar    1  UNL1        0.0372
     35 C         144.3967  139.2337  164.8284 C.ar    1  UNL1        0.0031
     36 C         145.3871  140.0909  164.0974 C.ar    1  UNL1       -0.0001
     37 C         145.1227  141.5566  163.9188 C.ar    1  UNL1       -0.0013
     38 C         143.8679  142.1651  164.4713 C.ar    1  UNL1        0.0118
     39 C         143.6034  143.6307  164.2928 C.3     1  UNL1        0.0218
     40 C         142.7020  143.3268  163.1331 C.3     1  UNL1        0.0045
     41 C         144.5048  143.9346  165.4526 C.3     1  UNL1        0.0045
     42 C         143.3390  145.0963  164.1143 C.3     1  UNL1        0.0045
@<TRIPOS>BOND
     1    23    24    1
     2    24    25    1
     3    24    22    1
     4    22    16    1
     5    16    17    1
     6    17    18    1
     7    18    19    1
     8    19    15    1
     9    15    14    1
    10    14     7    1
    11     7     8   ar
    12     8     9   ar
    13     9    10   ar
    14    10     1    1
    15     1     2   am
    16     2     3    2
    17     2     4   am
    18     4    26    1
    19    26    27   ar
    20    27    28   ar
    21    28    29   ar
    22    29    30   ar
    23    30    31   ar
    24    31    32    1
    25    32    33    1
    26    33    34   ar
    27    34    35   ar
    28    35    36   ar
    29    36    37   ar
    30    37    38   ar
    31    38    39    1
    32    39    40    1
    33    39    41    1
    34    39    42    1
    35    10    11   ar
    36    11    12    1
    37    11    13   ar
    38    19    20    1
    39    20    21    1
    40    21    16    1
    41    13     7   ar
    42    31    26   ar
    43    38    33   ar
    44     1     5    1
    45     4     6    1
@<TRIPOS>MOLECULE
*****
 42 45 0 0 0
SMALL
GASTEIGER

@<TRIPOS>ATOM
      1 N         139.2319  139.0279  161.0883 N.am    1  UNL1       -0.2662
      2 C         139.4331  140.2406  161.9480 C.2     1  UNL1        0.3083
      3 O         140.6601  141.0861  161.7768 O.2     1  UNL1       -0.2521
      4 N         138.4072  140.6076  162.9790 N.am    1  UNL1       -0.2643
      5 H         138.4265  138.4729  161.2007 H       1  UNL1        0.1565
      6 H         137.6019  140.0526  163.0914 H       1  UNL1        0.1566
      7 C         142.3095  137.9269  157.9953 C.ar    1  UNL1        0.1409
      8 C         140.9346  138.3482  157.5684 C.ar    1  UNL1        0.0383
      9 C         139.9087  138.7152  158.5994 C.ar    1  UNL1        0.0201
     10 C         140.2577  138.6609  160.0573 C.ar    1  UNL1        0.0795
     11 C         141.6326  138.2396  160.4841 C.ar    1  UNL1        0.1565
     12 F         141.9816  138.1853  161.9419 F       1  UNL1       -0.2028
     13 C         142.6585  137.8726  159.4531 C.ar    1  UNL1        0.0678
     14 O         143.3353  137.5599  156.9644 O.3     1  UNL1       -0.4754
     15 C         142.9653  136.6543  155.8273 C.3     1  UNL1        0.2054
     16 N         142.8051  132.2016  156.4575 N.3     1  UNL1       -0.2727
     17 C         141.9274  132.8450  155.4253 C.3     1  UNL1        0.0722
     18 C         141.9808  134.3293  155.2152 C.3     1  UNL1        0.0211
     19 C         142.9119  135.1701  156.0374 C.3     1  UNL1        0.0465
     20 C         143.7897  134.5266  157.0695 C.3     1  UNL1        0.0211
     21 C         143.7363  133.0424  157.2796 C.3     1  UNL1        0.0722
     22 C         142.7518  130.7173  156.6675 C.3     1  UNL1        0.0720
     23 C         144.4778  129.5841  158.2444 C.3     1  UNL1        0.0014
     24 C         144.0206  129.9411  156.8611 C.3     1  UNL1        0.0160
     25 C         144.8323  129.5219  155.6714 C.3     1  UNL1        0.0014
     26 C         138.6084  141.8201  163.8387 C.ar    1  UNL1        0.1058
     27 C         137.9385  143.1134  163.4800 C.ar    1  UNL1        0.0211
     28 C         138.1397  144.3260  164.3397 C.ar    1  UNL1        0.0222
     29 C         139.0107  144.2453  165.5582 C.ar    1  UNL1        0.1022
     30 N         139.6806  142.9521  165.9170 N.ar    1  UNL1       -0.2088
     31 C         139.4795  141.7395  165.0572 C.ar    1  UNL1        0.2434
     32 O         140.1494  140.4462  165.4160 O.3     1  UNL1       -0.4354
     33 C         140.6462  140.2213  166.8133 C.ar    1  UNL1        0.1432
     34 C         139.6833  140.2369  167.9633 C.ar    1  UNL1        0.0372
     35 C         140.1802  140.0120  169.3607 C.ar    1  UNL1        0.0031
     36 C         141.6399  139.7716  169.6080 C.ar    1  UNL1       -0.0001
     37 C         142.6029  139.7560  168.4580 C.ar    1  UNL1       -0.0013
     38 C         142.1061  139.9809  167.0607 C.ar    1  UNL1        0.0118
     39 C         143.0690  139.9653  165.9107 C.3     1  UNL1        0.0218
     40 C         142.9287  138.4751  165.8134 C.3     1  UNL1        0.0045
     41 C         143.2092  141.4556  166.0079 C.3     1  UNL1        0.0045
     42 C         144.0319  139.9498  164.7607 C.3     1  UNL1        0.0045
@<TRIPOS>BOND
     1    23    24    1
     2    24    25    1
     3    24    22    1
     4    22    16    1
     5    16    17    1
     6    17    18    1
     7    18    19    1
     8    19    15    1
     9    15    14    1
    10    14     7    1
    11     7     8   ar
    12     8     9   ar
    13     9    10   ar
    14    10     1    1
    15     1     2   am
    16     2     3    2
    17     2     4   am
    18     4    26    1
    19    26    27   ar
    20    27    28   ar
    21    28    29   ar
    22    29    30   ar
    23    30    31   ar
    24    31    32    1
    25    32    33    1
    26    33    34   ar
    27    34    35   ar
    28    35    36   ar
    29    36    37   ar
    30    37    38   ar
    31    38    39    1
    32    39    40    1
    33    39    41    1
    34    39    42    1
    35    10    11   ar
    36    11    12    1
    37    11    13   ar
    38    19    20    1
    39    20    21    1
    40    21    16    1
    41    13     7   ar
    42    31    26   ar
    43    38    33   ar
    44     1     5    1
    45     4     6    1
@<TRIPOS>MOLECULE
*****
 42 45 0 0 0
SMALL
GASTEIGER

@<TRIPOS>ATOM
      1 N         139.8522  138.8690  161.7160 N.am    1  UNL1       -0.2662
      2 C         139.8385  140.2677  162.2581 C.2     1  UNL1        0.3083
      3 O         140.6792  141.3299  161.6140 O.2     1  UNL1       -0.2521
      4 N         138.9841  140.6040  163.4442 N.am    1  UNL1       -0.2643
      5 H         139.3004  138.1719  162.1388 H       1  UNL1        0.1565
      6 H         138.4323  139.9068  163.8669 H       1  UNL1        0.1566
      7 C         142.4154  137.8600  158.1577 C.ar    1  UNL1        0.1409
      8 C         141.0147  138.3575  157.9561 C.ar    1  UNL1        0.0383
      9 C         140.1603  138.6938  159.1422 C.ar    1  UNL1        0.0201
     10 C         140.7066  138.5327  160.5299 C.ar    1  UNL1        0.0795
     11 C         142.1073  138.0353  160.7315 C.ar    1  UNL1        0.1565
     12 F         142.6535  137.8742  162.1191 F       1  UNL1       -0.2028
     13 C         142.9617  137.6989  159.5454 C.ar    1  UNL1        0.0678
     14 O         143.2699  137.5237  156.9716 O.3     1  UNL1       -0.4754
     15 C         142.7135  136.6835  155.8606 C.3     1  UNL1        0.2054
     16 N         142.7146  132.1975  156.2147 N.3     1  UNL1       -0.2727
     17 C         143.3676  133.0337  157.2750 C.3     1  UNL1        0.0722
     18 C         143.3672  134.5290  157.1570 C.3     1  UNL1        0.0211
     19 C         142.7139  135.1882  155.9786 C.3     1  UNL1        0.0465
     20 C         142.0609  134.3520  154.9183 C.3     1  UNL1        0.0211
     21 C         142.0613  132.8566  155.0363 C.3     1  UNL1        0.0722
     22 C         142.7150  130.7021  156.3327 C.3     1  UNL1        0.0720
     23 C         144.9039  129.6158  155.4502 C.3     1  UNL1        0.0014
     24 C         143.9986  129.9706  156.5923 C.3     1  UNL1        0.0160
     25 C         144.3768  129.5939  157.9942 C.3     1  UNL1        0.0014
     26 C         138.9704  142.0026  163.9862 C.ar    1  UNL1        0.1058
     27 C         137.7527  142.8617  163.8143 C.ar    1  UNL1        0.0211
     28 C         137.7390  144.2602  164.3564 C.ar    1  UNL1        0.0222
     29 C         138.9429  144.7998  165.0702 C.ar    1  UNL1        0.1022
     30 N         140.1605  143.9408  165.2421 N.ar    1  UNL1       -0.2088
     31 C         140.1742  142.5421  164.7000 C.ar    1  UNL1        0.2434
     32 O         141.3918  141.6831  164.8719 O.3     1  UNL1       -0.4354
     33 C         141.8798  141.3405  166.2483 C.ar    1  UNL1        0.1432
     34 C         142.4841  142.4042  167.1162 C.ar    1  UNL1        0.0372
     35 C         142.9721  142.0615  168.4926 C.ar    1  UNL1        0.0031
     36 C         142.8557  140.6552  169.0011 C.ar    1  UNL1       -0.0001
     37 C         142.2513  139.5914  168.1332 C.ar    1  UNL1       -0.0013
     38 C         141.7633  139.9341  166.7568 C.ar    1  UNL1        0.0118
     39 C         141.1590  138.8704  165.8889 C.3     1  UNL1        0.0218
     40 C         139.7955  139.2251  166.4036 C.3     1  UNL1        0.0045
     41 C         142.5225  138.5156  165.3742 C.3     1  UNL1        0.0045
     42 C         140.5546  137.8067  165.0210 C.3     1  UNL1        0.0045
@<TRIPOS>BOND
     1    23    24    1
     2    24    25    1
     3    24    22    1
     4    22    16    1
     5    16    17    1
     6    17    18    1
     7    18    19    1
     8    19    15    1
     9    15    14    1
    10    14     7    1
    11     7     8   ar
    12     8     9   ar
    13     9    10   ar
    14    10     1    1
    15     1     2   am
    16     2     3    2
    17     2     4   am
    18     4    26    1
    19    26    27   ar
    20    27    28   ar
    21    28    29   ar
    22    29    30   ar
    23    30    31   ar
    24    31    32    1
    25    32    33    1
    26    33    34   ar
    27    34    35   ar
    28    35    36   ar
    29    36    37   ar
    30    37    38   ar
    31    38    39    1
    32    39    40    1
    33    39    41    1
    34    39    42    1
    35    10    11   ar
    36    11    12    1
    37    11    13   ar
    38    19    20    1
    39    20    21    1
    40    21    16    1
    41    13     7   ar
    42    31    26   ar
    43    38    33   ar
    44     1     5    1
    45     4     6    1
@<TRIPOS>MOLECULE
*****
 42 45 0 0 0
SMALL
GASTEIGER

@<TRIPOS>ATOM
      1 N         139.2752  139.1982  159.8322 N.am    1  UNL1       -0.2662
      2 C         139.3670  140.4615  160.6359 C.2     1  UNL1        0.3083
      3 O         140.2228  141.5957  160.1551 O.2     1  UNL1       -0.2521
      4 N         138.6030  140.5905  161.9203 N.am    1  UNL1       -0.2643
      5 H         138.7135  138.4538  160.1478 H       1  UNL1        0.1565
      6 H         138.0413  139.8460  162.2358 H       1  UNL1        0.1566
      7 C         141.5672  138.8113  155.9790 C.ar    1  UNL1        0.1409
      8 C         140.0849  139.0398  155.9503 C.ar    1  UNL1        0.0383
      9 C         139.3209  139.1688  157.2347 C.ar    1  UNL1        0.0201
     10 C         140.0392  139.0693  158.5478 C.ar    1  UNL1        0.0795
     11 C         141.5214  138.8408  158.5765 C.ar    1  UNL1        0.1565
     12 F         142.2396  138.7413  159.8896 F       1  UNL1       -0.2028
     13 C         142.2854  138.7118  157.2921 C.ar    1  UNL1        0.0678
     14 O         142.3312  138.6823  154.6946 O.3     1  UNL1       -0.4754
     15 C         142.2901  137.3965  153.9234 C.3     1  UNL1        0.2054
     16 N         142.8070  133.4718  156.0634 N.3     1  UNL1       -0.2727
     17 C         141.5415  133.7537  155.3091 C.3     1  UNL1        0.0722
     18 C         141.3692  135.0620  154.5957 C.3     1  UNL1        0.0211
     19 C         142.4624  136.0882  154.6368 C.3     1  UNL1        0.0465
     20 C         143.7278  135.8063  155.3911 C.3     1  UNL1        0.0211
     21 C         143.9001  134.4980  156.1044 C.3     1  UNL1        0.0722
     22 C         142.9792  132.1635  156.7767 C.3     1  UNL1        0.0720
     23 C         145.2032  131.6270  158.0080 C.3     1  UNL1        0.0014
     24 C         144.3213  131.4941  156.8019 C.3     1  UNL1        0.0160
     25 C         144.7815  130.6917  155.6210 C.3     1  UNL1        0.0014
     26 C         138.6948  141.8537  162.7239 C.ar    1  UNL1        0.1058
     27 C         137.8200  143.0239  162.3843 C.ar    1  UNL1        0.0211
     28 C         137.9118  144.2871  163.1880 C.ar    1  UNL1        0.0222
     29 C         138.8783  144.3801  164.3313 C.ar    1  UNL1        0.1022
     30 N         139.7532  143.2100  164.6709 N.ar    1  UNL1       -0.2088
     31 C         139.6614  141.9467  163.8672 C.ar    1  UNL1        0.2434
     32 O         140.5362  140.7765  164.2068 O.3     1  UNL1       -0.4354
     33 C         141.8525  140.5971  163.5103 C.ar    1  UNL1        0.1432
     34 C         142.5469  141.7797  162.9027 C.ar    1  UNL1        0.0372
     35 C         143.8632  141.6002  162.2062 C.ar    1  UNL1        0.0031
     36 C         144.4852  140.2382  162.1174 C.ar    1  UNL1       -0.0001
     37 C         143.7908  139.0555  162.7251 C.ar    1  UNL1       -0.0013
     38 C         142.4745  139.2349  163.4216 C.ar    1  UNL1        0.0118
     39 C         141.7802  138.0523  164.0292 C.3     1  UNL1        0.0218
     40 C         142.5002  138.2942  165.3227 C.3     1  UNL1        0.0045
     41 C         141.0601  137.8105  162.7358 C.3     1  UNL1        0.0045
     42 C         141.0858  136.8698  164.6369 C.3     1  UNL1        0.0045
@<TRIPOS>BOND
     1    23    24    1
     2    24    25    1
     3    24    22    1
     4    22    16    1
     5    16    17    1
     6    17    18    1
     7    18    19    1
     8    19    15    1
     9    15    14    1
    10    14     7    1
    11     7     8   ar
    12     8     9   ar
    13     9    10   ar
    14    10     1    1
    15     1     2   am
    16     2     3    2
    17     2     4   am
    18     4    26    1
    19    26    27   ar
    20    27    28   ar
    21    28    29   ar
    22    29    30   ar
    23    30    31   ar
    24    31    32    1
    25    32    33    1
    26    33    34   ar
    27    34    35   ar
    28    35    36   ar
    29    36    37   ar
    30    37    38   ar
    31    38    39    1
    32    39    40    1
    33    39    41    1
    34    39    42    1
    35    10    11   ar
    36    11    12    1
    37    11    13   ar
    38    19    20    1
    39    20    21    1
    40    21    16    1
    41    13     7   ar
    42    31    26   ar
    43    38    33   ar
    44     1     5    1
    45     4     6    1
@<TRIPOS>MOLECULE
*****
 42 45 0 0 0
SMALL
GASTEIGER

@<TRIPOS>ATOM
      1 N         143.1864  139.6650  160.2206 N.am    1  UNL1       -0.2662
      2 C         142.5152  140.8267  160.8914 C.2     1  UNL1        0.3083
      3 O         141.4415  141.5893  160.1734 O.2     1  UNL1       -0.2521
      4 N         142.9176  141.2257  162.2802 N.am    1  UNL1       -0.2643
      5 H         143.8911  139.1644  160.6918 H       1  UNL1        0.1565
      6 H         143.6223  140.7252  162.7514 H       1  UNL1        0.1566
      7 C         141.9790  138.4679  156.0541 C.ar    1  UNL1        0.1409
      8 C         141.1941  137.9745  157.2334 C.ar    1  UNL1        0.0383
      9 C         141.5966  138.3735  158.6222 C.ar    1  UNL1        0.0201
     10 C         142.7839  139.2659  158.8318 C.ar    1  UNL1        0.0795
     11 C         143.5687  139.7593  157.6525 C.ar    1  UNL1        0.1565
     12 F         144.7560  140.6517  157.8621 F       1  UNL1       -0.2028
     13 C         143.1663  139.3603  156.2637 C.ar    1  UNL1        0.0678
     14 O         141.5765  138.0689  154.6653 O.3     1  UNL1       -0.4754
     15 C         142.2701  136.9278  153.9821 C.3     1  UNL1        0.2054
     16 N         142.7434  132.9875  156.1035 N.3     1  UNL1       -0.2727
     17 C         141.5022  133.2673  155.3092 C.3     1  UNL1        0.0722
     18 C         141.3444  134.5807  154.6020 C.3     1  UNL1        0.0211
     19 C         142.4279  135.6144  154.6892 C.3     1  UNL1        0.0465
     20 C         143.6691  135.3346  155.4836 C.3     1  UNL1        0.0211
     21 C         143.8269  134.0212  156.1907 C.3     1  UNL1        0.0722
     22 C         142.9012  131.6741  156.8106 C.3     1  UNL1        0.0720
     23 C         145.0014  130.8679  158.1103 C.3     1  UNL1        0.0014
     24 C         144.2341  130.9864  156.8268 C.3     1  UNL1        0.0160
     25 C         144.7998  130.4171  155.5595 C.3     1  UNL1        0.0014
     26 C         142.2464  142.3874  162.9510 C.ar    1  UNL1        0.1058
     27 C         142.7613  143.7793  162.7329 C.ar    1  UNL1        0.0211
     28 C         142.0901  144.9409  163.4037 C.ar    1  UNL1        0.0222
     29 C         140.9040  144.7107  164.2926 C.ar    1  UNL1        0.1022
     30 N         140.3891  143.3189  164.5107 N.ar    1  UNL1       -0.2088
     31 C         141.0603  142.1572  163.8399 C.ar    1  UNL1        0.2434
     32 O         140.5454  140.7653  164.0580 O.3     1  UNL1       -0.4354
     33 C         139.5391  140.1810  163.1115 C.ar    1  UNL1        0.1432
     34 C         138.6548  141.0851  162.3050 C.ar    1  UNL1        0.0372
     35 C         137.6484  140.5008  161.3585 C.ar    1  UNL1        0.0031
     36 C         137.5264  139.0124  161.2185 C.ar    1  UNL1       -0.0001
     37 C         138.4108  138.1082  162.0251 C.ar    1  UNL1       -0.0013
     38 C         139.4171  138.6925  162.9716 C.ar    1  UNL1        0.0118
     39 C         140.3014  137.7884  163.7781 C.3     1  UNL1        0.0218
     40 C         139.3040  137.8118  164.8981 C.3     1  UNL1        0.0045
     41 C         141.2989  137.7649  162.6581 C.3     1  UNL1        0.0045
     42 C         141.1858  136.8843  164.5846 C.3     1  UNL1        0.0045
@<TRIPOS>BOND
     1    23    24    1
     2    24    25    1
     3    24    22    1
     4    22    16    1
     5    16    17    1
     6    17    18    1
     7    18    19    1
     8    19    15    1
     9    15    14    1
    10    14     7    1
    11     7     8   ar
    12     8     9   ar
    13     9    10   ar
    14    10     1    1
    15     1     2   am
    16     2     3    2
    17     2     4   am
    18     4    26    1
    19    26    27   ar
    20    27    28   ar
    21    28    29   ar
    22    29    30   ar
    23    30    31   ar
    24    31    32    1
    25    32    33    1
    26    33    34   ar
    27    34    35   ar
    28    35    36   ar
    29    36    37   ar
    30    37    38   ar
    31    38    39    1
    32    39    40    1
    33    39    41    1
    34    39    42    1
    35    10    11   ar
    36    11    12    1
    37    11    13   ar
    38    19    20    1
    39    20    21    1
    40    21    16    1
    41    13     7   ar
    42    31    26   ar
    43    38    33   ar
    44     1     5    1
    45     4     6    1
@<TRIPOS>MOLECULE
*****
 42 45 0 0 0
SMALL
GASTEIGER

@<TRIPOS>ATOM
      1 N         143.5410  140.9789  160.5086 N.am    1  UNL1       -0.2662
      2 C         142.4949  141.4946  161.4520 C.2     1  UNL1        0.3083
      3 O         141.1678  140.8027  161.5512 O.2     1  UNL1       -0.2521
      4 N         142.7761  142.7022  162.2962 N.am    1  UNL1       -0.2643
      5 H         144.4121  141.4330  160.4435 H       1  UNL1        0.1565
      6 H         143.6472  143.1563  162.2311 H       1  UNL1        0.1566
      7 C         142.6974  137.3561  157.9761 C.ar    1  UNL1        0.1409
      8 C         142.7609  138.7149  157.3438 C.ar    1  UNL1        0.0383
      9 C         143.0421  139.9225  158.1880 C.ar    1  UNL1        0.0201
     10 C         143.2598  139.7713  159.6645 C.ar    1  UNL1        0.0795
     11 C         143.1963  138.4125  160.2967 C.ar    1  UNL1        0.1565
     12 F         143.4140  138.2614  161.7730 F       1  UNL1       -0.2028
     13 C         142.9152  137.2049  159.4525 C.ar    1  UNL1        0.0678
     14 O         142.4163  136.1485  157.1320 O.3     1  UNL1       -0.4754
     15 C         143.5503  135.3110  156.6196 C.3     1  UNL1        0.2054
     16 N         143.3227  130.8234  156.8639 N.3     1  UNL1       -0.2727
     17 C         142.3320  131.5803  156.0299 C.3     1  UNL1        0.0722
     18 C         142.4079  133.0762  155.9484 C.3     1  UNL1        0.0211
     19 C         143.4744  133.8151  156.7010 C.3     1  UNL1        0.0465
     20 C         144.4651  133.0582  157.5351 C.3     1  UNL1        0.0211
     21 C         144.3892  131.5623  157.6165 C.3     1  UNL1        0.0722
     22 C         143.2468  129.3275  156.9453 C.3     1  UNL1        0.0720
     23 C         145.1757  128.0016  158.0728 C.3     1  UNL1        0.0014
     24 C         143.8071  128.6120  158.1387 C.3     1  UNL1        0.0160
     25 C         142.9987  128.5068  159.3979 C.3     1  UNL1        0.0014
     26 C         141.7301  143.2179  163.2395 C.ar    1  UNL1        0.1058
     27 C         140.7140  144.2126  162.7617 C.ar    1  UNL1        0.0211
     28 C         139.6681  144.7283  163.7051 C.ar    1  UNL1        0.0222
     29 C         139.6381  144.2493  165.1262 C.ar    1  UNL1        0.1022
     30 N         140.6542  143.2547  165.6041 N.ar    1  UNL1       -0.2088
     31 C         141.7002  142.7390  164.6607 C.ar    1  UNL1        0.2434
     32 O         142.7162  141.7443  165.1385 O.3     1  UNL1       -0.4354
     33 C         142.7786  141.3747  166.5909 C.ar    1  UNL1        0.1432
     34 C         143.1337  142.4123  167.6143 C.ar    1  UNL1        0.0372
     35 C         143.1961  142.0427  169.0667 C.ar    1  UNL1        0.0031
     36 C         142.9034  140.6355  169.4958 C.ar    1  UNL1       -0.0001
     37 C         142.5483  139.5978  168.4724 C.ar    1  UNL1       -0.0013
     38 C         142.4859  139.9675  167.0200 C.ar    1  UNL1        0.0118
     39 C         142.1309  138.9299  165.9966 C.3     1  UNL1        0.0218
     40 C         143.5683  138.5072  165.9264 C.3     1  UNL1        0.0045
     41 C         140.6934  139.3525  166.0668 C.3     1  UNL1        0.0045
     42 C         141.7758  137.8923  164.9732 C.3     1  UNL1        0.0045
@<TRIPOS>BOND
     1    23    24    1
     2    24    25    1
     3    24    22    1
     4    22    16    1
     5    16    17    1
     6    17    18    1
     7    18    19    1
     8    19    15    1
     9    15    14    1
    10    14     7    1
    11     7     8   ar
    12     8     9   ar
    13     9    10   ar
    14    10     1    1
    15     1     2   am
    16     2     3    2
    17     2     4   am
    18     4    26    1
    19    26    27   ar
    20    27    28   ar
    21    28    29   ar
    22    29    30   ar
    23    30    31   ar
    24    31    32    1
    25    32    33    1
    26    33    34   ar
    27    34    35   ar
    28    35    36   ar
    29    36    37   ar
    30    37    38   ar
    31    38    39    1
    32    39    40    1
    33    39    41    1
    34    39    42    1
    35    10    11   ar
    36    11    12    1
    37    11    13   ar
    38    19    20    1
    39    20    21    1
    40    21    16    1
    41    13     7   ar
    42    31    26   ar
    43    38    33   ar
    44     1     5    1
    45     4     6    1
@<TRIPOS>MOLECULE
*****
 42 45 0 0 0
SMALL
GASTEIGER

@<TRIPOS>ATOM
      1 N         143.7252  140.1967  160.2554 N.am    1  UNL1       -0.2662
      2 C         142.8354  141.1848  160.9498 C.2     1  UNL1        0.3083
      3 O         141.5102  141.5514  160.3503 O.2     1  UNL1       -0.2521
      4 N         143.2709  141.8064  162.2436 N.am    1  UNL1       -0.2643
      5 H         144.5950  139.9562  160.6489 H       1  UNL1        0.1565
      6 H         144.1407  141.5658  162.6371 H       1  UNL1        0.1566
      7 C         142.4186  138.3322  156.3739 C.ar    1  UNL1        0.1409
      8 C         143.2791  139.5608  156.3635 C.ar    1  UNL1        0.0383
      9 C         143.7146  140.1823  157.6574 C.ar    1  UNL1        0.0201
     10 C         143.2897  139.5752  158.9616 C.ar    1  UNL1        0.0795
     11 C         142.4292  138.3466  158.9719 C.ar    1  UNL1        0.1565
     12 F         142.0042  137.7396  160.2760 F       1  UNL1       -0.2028
     13 C         141.9937  137.7251  157.6780 C.ar    1  UNL1        0.0678
     14 O         141.9831  137.7106  155.0800 O.3     1  UNL1       -0.4754
     15 C         142.7993  136.6141  154.4625 C.3     1  UNL1        0.2054
     16 N         142.9000  132.5384  156.3674 N.3     1  UNL1       -0.2727
     17 C         141.8348  132.8719  155.3653 C.3     1  UNL1        0.0722
     18 C         141.8012  134.2304  154.7304 C.3     1  UNL1        0.0211
     19 C         142.8328  135.2556  155.0975 C.3     1  UNL1        0.0465
     20 C         143.8980  134.9221  156.0995 C.3     1  UNL1        0.0211
     21 C         143.9316  133.5635  156.7345 C.3     1  UNL1        0.0722
     22 C         142.9335  131.1798  157.0023 C.3     1  UNL1        0.0720
     23 C         144.7617  130.1757  155.4534 C.3     1  UNL1        0.0014
     24 C         143.5002  130.0134  156.2485 C.3     1  UNL1        0.0160
     25 C         142.8053  128.6847  156.2897 C.3     1  UNL1        0.0014
     26 C         142.3813  142.7944  162.9380 C.ar    1  UNL1        0.1058
     27 C         142.6485  144.2648  162.8083 C.ar    1  UNL1        0.0211
     28 C         141.7588  145.2528  163.5027 C.ar    1  UNL1        0.0222
     29 C         140.6019  144.7706  164.3267 C.ar    1  UNL1        0.1022
     30 N         140.3346  143.3003  164.4563 N.ar    1  UNL1       -0.2088
     31 C         141.2243  142.3122  163.7619 C.ar    1  UNL1        0.2434
     32 O         140.9570  140.8419  163.8916 O.3     1  UNL1       -0.4354
     33 C         140.1552  140.3246  165.0489 C.ar    1  UNL1        0.1432
     34 C         140.6425  140.5335  166.4520 C.ar    1  UNL1        0.0372
     35 C         139.8407  140.0161  167.6093 C.ar    1  UNL1        0.0031
     36 C         138.5515  139.2898  167.3635 C.ar    1  UNL1       -0.0001
     37 C         138.0641  139.0809  165.9603 C.ar    1  UNL1       -0.0013
     38 C         138.8659  139.5982  164.8030 C.ar    1  UNL1        0.0118
     39 C         138.3786  139.3893  163.3999 C.3     1  UNL1        0.0218
     40 C         137.6958  140.7243  163.4383 C.3     1  UNL1        0.0045
     41 C         139.0615  138.0544  163.3615 C.3     1  UNL1        0.0045
     42 C         137.8913  139.1804  161.9967 C.3     1  UNL1        0.0045
@<TRIPOS>BOND
     1    23    24    1
     2    24    25    1
     3    24    22    1
     4    22    16    1
     5    16    17    1
     6    17    18    1
     7    18    19    1
     8    19    15    1
     9    15    14    1
    10    14     7    1
    11     7     8   ar
    12     8     9   ar
    13     9    10   ar
    14    10     1    1
    15     1     2   am
    16     2     3    2
    17     2     4   am
    18     4    26    1
    19    26    27   ar
    20    27    28   ar
    21    28    29   ar
    22    29    30   ar
    23    30    31   ar
    24    31    32    1
    25    32    33    1
    26    33    34   ar
    27    34    35   ar
    28    35    36   ar
    29    36    37   ar
    30    37    38   ar
    31    38    39    1
    32    39    40    1
    33    39    41    1
    34    39    42    1
    35    10    11   ar
    36    11    12    1
    37    11    13   ar
    38    19    20    1
    39    20    21    1
    40    21    16    1
    41    13     7   ar
    42    31    26   ar
    43    38    33   ar
    44     1     5    1
    45     4     6    1
@<TRIPOS>MOLECULE
*****
 42 45 0 0 0
SMALL
GASTEIGER

@<TRIPOS>ATOM
      1 N         143.5639  140.7311  160.4733 N.am    1  UNL1       -0.2662
      2 C         142.4202  141.5119  161.0499 C.2     1  UNL1        0.3083
      3 O         141.0417  141.3546  160.4799 O.2     1  UNL1       -0.2521
      4 N         142.6551  142.4499  162.1966 N.am    1  UNL1       -0.2643
      5 H         144.4687  140.8344  160.8474 H       1  UNL1        0.1565
      6 H         143.5599  142.5532  162.5707 H       1  UNL1        0.1566
      7 C         142.8593  137.9169  157.0332 C.ar    1  UNL1        0.1409
      8 C         143.3582  139.3077  156.7744 C.ar    1  UNL1        0.0383
      9 C         143.5931  140.2458  157.9211 C.ar    1  UNL1        0.0201
     10 C         143.3290  139.7931  159.3266 C.ar    1  UNL1        0.0795
     11 C         142.8301  138.4024  159.5854 C.ar    1  UNL1        0.1565
     12 F         142.5661  137.9497  160.9908 F       1  UNL1       -0.2028
     13 C         142.5952  137.4643  158.4387 C.ar    1  UNL1        0.0678
     14 O         142.6244  136.9789  155.8865 O.3     1  UNL1       -0.4754
     15 C         141.7809  135.7538  156.0804 C.3     1  UNL1        0.2054
     16 N         143.7380  131.7594  156.7623 N.3     1  UNL1       -0.2727
     17 C         144.3667  133.0060  157.3107 C.3     1  UNL1        0.0722
     18 C         143.7143  134.3375  157.0834 C.3     1  UNL1        0.0211
     19 C         142.4333  134.4223  156.3077 C.3     1  UNL1        0.0465
     20 C         141.8046  133.1758  155.7593 C.3     1  UNL1        0.0211
     21 C         142.4570  131.8443  155.9866 C.3     1  UNL1        0.0722
     22 C         144.3904  130.4280  156.9896 C.3     1  UNL1        0.0720
     23 C         142.8976  128.3797  156.4184 C.3     1  UNL1        0.0014
     24 C         143.5673  129.2558  157.4352 C.3     1  UNL1        0.0160
     25 C         143.4140  128.9598  158.8978 C.3     1  UNL1        0.0014
     26 C         141.5115  143.2307  162.7732 C.ar    1  UNL1        0.1058
     27 C         141.0827  144.5172  162.1319 C.ar    1  UNL1        0.0211
     28 C         139.9391  145.2979  162.7086 C.ar    1  UNL1        0.0222
     29 C         139.2243  144.7923  163.9265 C.ar    1  UNL1        0.1022
     30 N         139.6530  143.5059  164.5678 N.ar    1  UNL1       -0.2088
     31 C         140.7967  142.7251  163.9912 C.ar    1  UNL1        0.2434
     32 O         141.2255  141.4387  164.6325 O.3     1  UNL1       -0.4354
     33 C         140.2742  140.6876  165.5161 C.ar    1  UNL1        0.1432
     34 C         139.1197  139.9431  164.9136 C.ar    1  UNL1        0.0372
     35 C         138.1684  139.1920  165.7973 C.ar    1  UNL1        0.0031
     36 C         138.3715  139.1853  167.2834 C.ar    1  UNL1       -0.0001
     37 C         139.5260  139.9298  167.8860 C.ar    1  UNL1       -0.0013
     38 C         140.4774  140.6809  167.0023 C.ar    1  UNL1        0.0118
     39 C         141.6318  141.4253  167.6048 C.3     1  UNL1        0.0218
     40 C         142.5077  140.2231  167.4119 C.3     1  UNL1        0.0045
     41 C         140.7559  142.6276  167.7977 C.3     1  UNL1        0.0045
     42 C         142.7863  142.1697  168.2073 C.3     1  UNL1        0.0045
@<TRIPOS>BOND
     1    23    24    1
     2    24    25    1
     3    24    22    1
     4    22    16    1
     5    16    17    1
     6    17    18    1
     7    18    19    1
     8    19    15    1
     9    15    14    1
    10    14     7    1
    11     7     8   ar
    12     8     9   ar
    13     9    10   ar
    14    10     1    1
    15     1     2   am
    16     2     3    2
    17     2     4   am
    18     4    26    1
    19    26    27   ar
    20    27    28   ar
    21    28    29   ar
    22    29    30   ar
    23    30    31   ar
    24    31    32    1
    25    32    33    1
    26    33    34   ar
    27    34    35   ar
    28    35    36   ar
    29    36    37   ar
    30    37    38   ar
    31    38    39    1
    32    39    40    1
    33    39    41    1
    34    39    42    1
    35    10    11   ar
    36    11    12    1
    37    11    13   ar
    38    19    20    1
    39    20    21    1
    40    21    16    1
    41    13     7   ar
    42    31    26   ar
    43    38    33   ar
    44     1     5    1
    45     4     6    1
@<TRIPOS>MOLECULE
*****
 42 45 0 0 0
SMALL
GASTEIGER

@<TRIPOS>ATOM
      1 N         138.4069  140.4822  160.7450 N.am    1  UNL1       -0.2662
      2 C         139.3821  141.4953  160.2229 C.2     1  UNL1        0.3083
      3 O         140.3649  142.1401  161.1547 O.2     1  UNL1       -0.2521
      4 N         139.3743  141.8637  158.7688 N.am    1  UNL1       -0.2643
      5 H         137.7619  140.0590  160.1334 H       1  UNL1        0.1565
      6 H         138.7293  141.4406  158.1572 H       1  UNL1        0.1566
      7 C         138.4301  139.3770  165.1072 C.ar    1  UNL1        0.1409
      8 C         137.7738  140.6493  164.6593 C.ar    1  UNL1        0.0383
      9 C         137.7660  141.0177  163.2053 C.ar    1  UNL1        0.0201
     10 C         138.4147  140.1138  162.1991 C.ar    1  UNL1        0.0795
     11 C         139.0710  138.8415  162.6470 C.ar    1  UNL1        0.1565
     12 F         139.7195  137.9377  161.6408 F       1  UNL1       -0.2028
     13 C         139.0787  138.4731  164.1010 C.ar    1  UNL1        0.0678
     14 O         138.4379  139.0086  166.5612 O.3     1  UNL1       -0.4754
     15 C         139.3325  139.7420  167.5160 C.3     1  UNL1        0.2054
     16 N         142.9210  141.9759  165.9724 N.3     1  UNL1       -0.2727
     17 C         141.6446  142.7111  166.2557 C.3     1  UNL1        0.0722
     18 C         140.4485  141.9665  166.7702 C.3     1  UNL1        0.0211
     19 C         140.5286  140.4867  167.0015 C.3     1  UNL1        0.0465
     20 C         141.8050  139.7514  166.7182 C.3     1  UNL1        0.0211
     21 C         143.0012  140.4960  166.2037 C.3     1  UNL1        0.0722
     22 C         144.1172  142.7205  165.4579 C.3     1  UNL1        0.0720
     23 C         143.9776  143.2549  162.9192 C.3     1  UNL1        0.0014
     24 C         144.5953  142.4935  164.0544 C.3     1  UNL1        0.0160
     25 C         145.6912  141.5049  163.7861 C.3     1  UNL1        0.0014
     26 C         140.3494  142.8769  158.2466 C.ar    1  UNL1        0.1058
     27 C         140.0577  144.3414  158.3888 C.ar    1  UNL1        0.0211
     28 C         141.0328  145.3545  157.8665 C.ar    1  UNL1        0.0222
     29 C         142.2996  144.9032  157.2022 C.ar    1  UNL1        0.1022
     30 N         142.5914  143.4388  157.0600 N.ar    1  UNL1       -0.2088
     31 C         141.6163  142.4255  157.5822 C.ar    1  UNL1        0.2434
     32 O         141.9081  140.9611  157.4401 O.3     1  UNL1       -0.4354
     33 C         142.4912  140.1973  158.5918 C.ar    1  UNL1        0.1432
     34 C         143.2864  140.9149  159.6419 C.ar    1  UNL1        0.0372
     35 C         143.8695  140.1510  160.7936 C.ar    1  UNL1        0.0031
     36 C         143.6576  138.6696  160.8952 C.ar    1  UNL1       -0.0001
     37 C         142.8624  137.9519  159.8451 C.ar    1  UNL1       -0.0013
     38 C         142.2792  138.7158  158.6934 C.ar    1  UNL1        0.0118
     39 C         141.4841  137.9982  157.6433 C.3     1  UNL1        0.0218
     40 C         142.7511  137.6593  156.9155 C.3     1  UNL1        0.0045
     41 C         140.2170  138.3371  158.3711 C.3     1  UNL1        0.0045
     42 C         140.6889  137.2806  156.5932 C.3     1  UNL1        0.0045
@<TRIPOS>BOND
     1    23    24    1
     2    24    25    1
     3    24    22    1
     4    22    16    1
     5    16    17    1
     6    17    18    1
     7    18    19    1
     8    19    15    1
     9    15    14    1
    10    14     7    1
    11     7     8   ar
    12     8     9   ar
    13     9    10   ar
    14    10     1    1
    15     1     2   am
    16     2     3    2
    17     2     4   am
    18     4    26    1
    19    26    27   ar
    20    27    28   ar
    21    28    29   ar
    22    29    30   ar
    23    30    31   ar
    24    31    32    1
    25    32    33    1
    26    33    34   ar
    27    34    35   ar
    28    35    36   ar
    29    36    37   ar
    30    37    38   ar
    31    38    39    1
    32    39    40    1
    33    39    41    1
    34    39    42    1
    35    10    11   ar
    36    11    12    1
    37    11    13   ar
    38    19    20    1
    39    20    21    1
    40    21    16    1
    41    13     7   ar
    42    31    26   ar
    43    38    33   ar
    44     1     5    1
    45     4     6    1
