@<TRIPOS>MOLECULE
*****
 35 37 0 0 0
SMALL
GASTEIGER

@<TRIPOS>ATOM
      1 C         143.0169  140.4210  165.3913 C.2     1  UNL1        0.2521
      2 O         144.0434  139.3283  165.3448 O.2     1  UNL1       -0.2698
      3 N         142.7400  141.2425  164.1672 N.am    1  UNL1       -0.2725
      4 C         141.7135  142.3353  164.2138 C.3     1  UNL1        0.1152
      5 C         141.4365  143.1568  162.9897 C.3     1  UNL1        0.1151
      6 N         142.1861  142.8855  161.7190 N.pl3   1  UNL1       -0.2747
      7 C         143.2126  141.7928  161.6725 C.3     1  UNL1        0.1151
      8 C         143.4895  140.9713  162.8966 C.3     1  UNL1        0.1152
      9 C         140.9341  140.0470  166.8987 C.ar    1  UNL1        0.1432
     10 C         140.1846  140.3184  168.1693 C.ar    1  UNL1        0.0384
     11 C         140.7683  141.2349  169.2033 C.ar    1  UNL1        0.0215
     12 C         142.1016  141.8802  168.9666 C.ar    1  UNL1        0.1061
     13 C         142.8511  141.6089  167.6960 C.ar    1  UNL1        0.0259
     14 C         142.2673  140.6923  166.6620 C.ar    1  UNL1        0.0887
     15 S         142.6853  142.7968  170.0006 S.O2    1  UNL1        0.0105
     16 C         143.2690  143.7134  171.0346 C.3     1  UNL1        0.1816
     17 O         144.0255  142.6944  169.3348 O.2     1  UNL1       -0.1686
     18 O         141.3451  142.8992  170.6665 O.2     1  UNL1       -0.1686
     19 O         140.3504  139.1305  165.8647 O.3     1  UNL1       -0.4702
     20 C         138.1403  140.0880  164.8908 C.3     1  UNL1        0.0566
     21 C         138.8628  139.0456  165.6916 C.3     1  UNL1        0.2599
     22 C         138.0978  137.9184  166.3194 C.3     1  UNL1        0.4340
     23 F         137.3327  136.7912  166.9472 F       1  UNL1       -0.1664
     24 F         138.8163  136.9399  165.4384 F       1  UNL1       -0.1664
     25 F         137.3792  138.8968  167.2005 F       1  UNL1       -0.1664
     26 C         141.9092  143.7070  160.4949 C.ar    1  UNL1        0.2203
     27 N         142.8133  143.6043  159.3024 N.ar    1  UNL1       -0.2121
     28 C         142.5364  144.4258  158.0783 C.ar    1  UNL1        0.1072
     29 C         141.3553  145.3500  158.0467 C.ar    1  UNL1        0.1097
     30 C         140.4512  145.4527  159.2392 C.ar    1  UNL1        0.1072
     31 N         140.7282  144.6312  160.4633 N.ar    1  UNL1       -0.2121
     32 C         141.0783  146.1715  156.8226 C.3     1  UNL1        0.4215
     33 F         140.8014  146.9930  155.5985 F       1  UNL1       -0.1657
     34 F         142.3353  145.6523  156.1898 F       1  UNL1       -0.1657
     35 F         139.8214  146.6907  157.4554 F       1  UNL1       -0.1657
@<TRIPOS>BOND
     1    20    21    1
     2    21    19    1
     3    19     9    1
     4     9    10   ar
     5    10    11   ar
     6    11    12   ar
     7    12    15    1
     8    15    16    1
     9    15    17    2
    10    15    18    2
    11    12    13   ar
    12    13    14   ar
    13    14     1    1
    14     1     2    2
    15     1     3   am
    16     3     4    1
    17     4     5    1
    18     5     6    1
    19     6    26    1
    20    26    27   ar
    21    27    28   ar
    22    28    29   ar
    23    29    32    1
    24    32    33    1
    25    32    34    1
    26    32    35    1
    27    29    30   ar
    28    30    31   ar
    29     6     7    1
    30     7     8    1
    31    21    22    1
    32    22    23    1
    33    22    24    1
    34    22    25    1
    35    14     9   ar
    36     8     3    1
    37    31    26   ar
@<TRIPOS>MOLECULE
*****
 35 37 0 0 0
SMALL
GASTEIGER

@<TRIPOS>ATOM
      1 C         139.2621  142.3356  164.6604 C.2     1  UNL1        0.2521
      2 O         138.0185  143.1630  164.5240 O.2     1  UNL1       -0.2698
      3 N         140.1838  142.1681  163.4889 N.am    1  UNL1       -0.2725
      4 C         141.4276  141.3407  163.6253 C.3     1  UNL1        0.1152
      5 C         142.3492  141.1733  162.4538 C.3     1  UNL1        0.1151
      6 N         142.0272  141.8333  161.1458 N.pl3   1  UNL1       -0.2747
      7 C         140.7835  142.6607  161.0094 C.3     1  UNL1        0.1151
      8 C         139.8618  142.8281  162.1809 C.3     1  UNL1        0.1152
      9 C         139.0215  140.3213  166.2837 C.ar    1  UNL1        0.1432
     10 C         139.3436  139.6614  167.5916 C.ar    1  UNL1        0.0384
     11 C         140.2283  140.3557  168.5842 C.ar    1  UNL1        0.0215
     12 C         140.7909  141.7099  168.2689 C.ar    1  UNL1        0.1061
     13 C         140.4688  142.3698  166.9610 C.ar    1  UNL1        0.0259
     14 C         139.5842  141.6755  165.9684 C.ar    1  UNL1        0.0887
     15 S         141.6756  142.4042  169.2615 S.O2    1  UNL1        0.0105
     16 C         142.5602  143.0985  170.2542 C.3     1  UNL1        0.1816
     17 O         140.6276  143.4593  169.4575 O.2     1  UNL1       -0.1686
     18 O         142.7235  141.3490  169.0656 O.2     1  UNL1       -0.1686
     19 O         138.1369  139.6270  165.2910 O.3     1  UNL1       -0.4702
     20 C         138.3731  139.0371  162.7719 C.3     1  UNL1        0.0566
     21 C         138.7423  138.7888  164.2044 C.3     1  UNL1        0.2599
     22 C         139.7169  137.7022  164.5503 C.3     1  UNL1        0.4340
     23 F         140.6915  136.6157  164.8961 F       1  UNL1       -0.1664
     24 F         138.7207  137.1122  165.5040 F       1  UNL1       -0.1664
     25 F         140.7130  138.2922  163.5966 F       1  UNL1       -0.1664
     26 C         142.9489  141.6658  159.9743 C.ar    1  UNL1        0.2203
     27 N         143.9632  142.7255  159.6606 N.ar    1  UNL1       -0.2121
     28 C         144.8849  142.5581  158.4891 C.ar    1  UNL1        0.1072
     29 C         144.7923  141.3310  157.6313 C.ar    1  UNL1        0.1097
     30 C         143.7780  140.2714  157.9450 C.ar    1  UNL1        0.1072
     31 N         142.8563  140.4389  159.1165 N.ar    1  UNL1       -0.2121
     32 C         145.7140  141.1636  156.4598 C.3     1  UNL1        0.4215
     33 F         146.6357  140.9961  155.2883 F       1  UNL1       -0.1657
     34 F         144.9624  139.9337  156.0442 F       1  UNL1       -0.1657
     35 F         146.4656  142.3934  156.8753 F       1  UNL1       -0.1657
@<TRIPOS>BOND
     1    20    21    1
     2    21    19    1
     3    19     9    1
     4     9    10   ar
     5    10    11   ar
     6    11    12   ar
     7    12    15    1
     8    15    16    1
     9    15    17    2
    10    15    18    2
    11    12    13   ar
    12    13    14   ar
    13    14     1    1
    14     1     2    2
    15     1     3   am
    16     3     4    1
    17     4     5    1
    18     5     6    1
    19     6    26    1
    20    26    27   ar
    21    27    28   ar
    22    28    29   ar
    23    29    32    1
    24    32    33    1
    25    32    34    1
    26    32    35    1
    27    29    30   ar
    28    30    31   ar
    29     6     7    1
    30     7     8    1
    31    21    22    1
    32    22    23    1
    33    22    24    1
    34    22    25    1
    35    14     9   ar
    36     8     3    1
    37    31    26   ar
@<TRIPOS>MOLECULE
*****
 35 37 0 0 0
SMALL
GASTEIGER

@<TRIPOS>ATOM
      1 C         139.8448  139.5262  164.9346 C.2     1  UNL1        0.2521
      2 O         138.9408  138.3317  164.8592 O.2     1  UNL1       -0.2698
      3 N         139.9516  140.4609  163.7663 N.am    1  UNL1       -0.2725
      4 C         140.8556  141.6556  163.8418 C.3     1  UNL1        0.1152
      5 C         140.9625  142.5903  162.6735 C.3     1  UNL1        0.1151
      6 N         140.1652  142.3303  161.4297 N.pl3   1  UNL1       -0.2747
      7 C         139.2613  141.1357  161.3543 C.3     1  UNL1        0.1151
      8 C         139.1544  140.2010  162.5226 C.3     1  UNL1        0.1152
      9 C         141.9657  139.1090  166.3760 C.ar    1  UNL1        0.1432
     10 C         142.7629  139.3690  167.6197 C.ar    1  UNL1        0.0384
     11 C         142.2363  140.3062  168.6659 C.ar    1  UNL1        0.0215
     12 C         140.9126  140.9834  168.4683 C.ar    1  UNL1        0.1061
     13 C         140.1154  140.7234  167.2246 C.ar    1  UNL1        0.0259
     14 C         140.6420  139.7862  166.1784 C.ar    1  UNL1        0.0887
     15 S         140.3860  141.9205  169.5144 S.O2    1  UNL1        0.0105
     16 C         139.8594  142.8577  170.5606 C.3     1  UNL1        0.1816
     17 O         140.3451  140.7936  170.5035 O.2     1  UNL1       -0.1686
     18 O         140.4268  143.0475  168.5254 O.2     1  UNL1       -0.1686
     19 O         142.4923  138.1718  165.3299 O.3     1  UNL1       -0.4702
     20 C         142.7423  138.3573  162.7505 C.3     1  UNL1        0.0566
     21 C         143.2107  138.7144  164.1301 C.3     1  UNL1        0.2599
     22 C         144.3975  139.6140  164.3097 C.3     1  UNL1        0.4340
     23 F         145.5842  140.5136  164.4894 F       1  UNL1       -0.1664
     24 F         144.9787  138.6494  165.3005 F       1  UNL1       -0.1664
     25 F         143.8162  140.5786  163.3190 F       1  UNL1       -0.1664
     26 C         140.2720  143.2650  160.2614 C.ar    1  UNL1        0.2203
     27 N         141.0671  144.5311  160.3840 N.ar    1  UNL1       -0.2121
     28 C         141.1739  145.4658  159.2157 C.ar    1  UNL1        0.1072
     29 C         140.4857  145.1343  157.9247 C.ar    1  UNL1        0.1097
     30 C         139.6907  143.8683  157.8021 C.ar    1  UNL1        0.1072
     31 N         139.5839  142.9336  158.9704 N.ar    1  UNL1       -0.2121
     32 C         140.5925  146.0690  156.7564 C.3     1  UNL1        0.4215
     33 F         140.6993  147.0037  155.5881 F       1  UNL1       -0.1657
     34 F         142.0322  146.3235  157.0917 F       1  UNL1       -0.1657
     35 F         139.1528  145.8145  156.4212 F       1  UNL1       -0.1657
@<TRIPOS>BOND
     1    20    21    1
     2    21    19    1
     3    19     9    1
     4     9    10   ar
     5    10    11   ar
     6    11    12   ar
     7    12    15    1
     8    15    16    1
     9    15    17    2
    10    15    18    2
    11    12    13   ar
    12    13    14   ar
    13    14     1    1
    14     1     2    2
    15     1     3   am
    16     3     4    1
    17     4     5    1
    18     5     6    1
    19     6    26    1
    20    26    27   ar
    21    27    28   ar
    22    28    29   ar
    23    29    32    1
    24    32    33    1
    25    32    34    1
    26    32    35    1
    27    29    30   ar
    28    30    31   ar
    29     6     7    1
    30     7     8    1
    31    21    22    1
    32    22    23    1
    33    22    24    1
    34    22    25    1
    35    14     9   ar
    36     8     3    1
    37    31    26   ar
@<TRIPOS>MOLECULE
*****
 35 37 0 0 0
SMALL
GASTEIGER

@<TRIPOS>ATOM
      1 C         139.2904  142.4305  164.6464 C.2     1  UNL1        0.2521
      2 O         138.0758  143.3031  164.5319 O.2     1  UNL1       -0.2698
      3 N         140.1965  142.2474  163.4650 N.am    1  UNL1       -0.2725
      4 C         141.4112  141.3748  163.5796 C.3     1  UNL1        0.1152
      5 C         142.3172  141.1917  162.3983 C.3     1  UNL1        0.1151
      6 N         142.0086  141.8814  161.1024 N.pl3   1  UNL1       -0.2747
      7 C         140.7940  142.7540  160.9879 C.3     1  UNL1        0.1151
      8 C         139.8879  142.9370  162.1692 C.3     1  UNL1        0.1152
      9 C         139.0296  140.3818  166.2227 C.ar    1  UNL1        0.1432
     10 C         139.3383  139.6922  167.5186 C.ar    1  UNL1        0.0384
     11 C         140.2163  140.3617  168.5339 C.ar    1  UNL1        0.0215
     12 C         140.7856  141.7207  168.2534 C.ar    1  UNL1        0.1061
     13 C         140.4770  142.4103  166.9576 C.ar    1  UNL1        0.0259
     14 C         139.5990  141.7408  165.9423 C.ar    1  UNL1        0.0887
     15 S         141.6636  142.3902  169.2687 S.O2    1  UNL1        0.0105
     16 C         142.5416  143.0597  170.2841 C.3     1  UNL1        0.1816
     17 O         142.8067  142.3637  168.2978 O.2     1  UNL1       -0.1686
     18 O         140.5206  142.4167  170.2397 O.2     1  UNL1       -0.1686
     19 O         138.1516  139.7123  165.2074 O.3     1  UNL1       -0.4702
     20 C         139.8264  137.8122  164.6289 C.3     1  UNL1        0.0566
     21 C         138.7477  138.7658  164.2080 C.3     1  UNL1        0.2599
     22 C         138.2651  138.7729  162.7877 C.3     1  UNL1        0.4340
     23 F         137.7826  138.7799  161.3675 F       1  UNL1       -0.1664
     24 F         137.5947  140.0941  163.0221 F       1  UNL1       -0.1664
     25 F         138.9355  137.4516  162.5534 F       1  UNL1       -0.1664
     26 C         142.9147  141.6984  159.9211 C.ar    1  UNL1        0.2203
     27 N         143.1160  140.3324  159.3348 N.ar    1  UNL1       -0.2121
     28 C         144.0221  140.1493  158.1535 C.ar    1  UNL1        0.1072
     29 C         144.7268  141.3323  157.5584 C.ar    1  UNL1        0.1097
     30 C         144.5255  142.6982  158.1447 C.ar    1  UNL1        0.1072
     31 N         143.6194  142.8812  159.3260 N.ar    1  UNL1       -0.2121
     32 C         145.6329  141.1493  156.3771 C.3     1  UNL1        0.4215
     33 F         146.5390  140.9662  155.1958 F       1  UNL1       -0.1657
     34 F         146.6661  142.0147  157.0355 F       1  UNL1       -0.1657
     35 F         144.5997  140.2838  155.7187 F       1  UNL1       -0.1657
@<TRIPOS>BOND
     1    20    21    1
     2    21    19    1
     3    19     9    1
     4     9    10   ar
     5    10    11   ar
     6    11    12   ar
     7    12    15    1
     8    15    16    1
     9    15    17    2
    10    15    18    2
    11    12    13   ar
    12    13    14   ar
    13    14     1    1
    14     1     2    2
    15     1     3   am
    16     3     4    1
    17     4     5    1
    18     5     6    1
    19     6    26    1
    20    26    27   ar
    21    27    28   ar
    22    28    29   ar
    23    29    32    1
    24    32    33    1
    25    32    34    1
    26    32    35    1
    27    29    30   ar
    28    30    31   ar
    29     6     7    1
    30     7     8    1
    31    21    22    1
    32    22    23    1
    33    22    24    1
    34    22    25    1
    35    14     9   ar
    36     8     3    1
    37    31    26   ar
@<TRIPOS>MOLECULE
*****
 35 37 0 0 0
SMALL
GASTEIGER

@<TRIPOS>ATOM
      1 C         142.1361  140.4824  163.3784 C.2     1  UNL1        0.2521
      2 O         143.2235  140.2749  164.3905 O.2     1  UNL1       -0.2698
      3 N         142.1739  139.7421  162.0744 N.am    1  UNL1       -0.2725
      4 C         141.0864  139.9496  161.0623 C.3     1  UNL1        0.1152
      5 C         141.1242  139.2092  159.7583 C.3     1  UNL1        0.1151
      6 N         142.2496  138.2613  159.4664 N.pl3   1  UNL1       -0.2747
      7 C         143.3370  138.0538  160.4785 C.3     1  UNL1        0.1151
      8 C         143.2992  138.7942  161.7825 C.3     1  UNL1        0.1152
      9 C         139.9571  141.0582  164.6709 C.ar    1  UNL1        0.1432
     10 C         138.8318  142.0061  164.9628 C.ar    1  UNL1        0.0384
     11 C         138.7601  143.3261  164.2539 C.ar    1  UNL1        0.0215
     12 C         139.8137  143.6982  163.2532 C.ar    1  UNL1        0.1061
     13 C         140.9390  142.7503  162.9614 C.ar    1  UNL1        0.0259
     14 C         141.0107  141.4303  163.6703 C.ar    1  UNL1        0.0887
     15 S         139.7420  145.0182  162.5444 S.O2    1  UNL1        0.0105
     16 C         139.6704  146.3382  161.8355 C.3     1  UNL1        0.1816
     17 O         138.2438  144.9537  162.5758 O.2     1  UNL1       -0.1686
     18 O         141.2403  145.0827  162.5130 O.2     1  UNL1       -0.1686
     19 O         140.0288  139.7382  165.3798 O.3     1  UNL1       -0.4702
     20 C         138.8663  138.1417  163.6917 C.3     1  UNL1        0.0566
     21 C         139.0139  138.6733  165.0866 C.3     1  UNL1        0.2599
     22 C         138.1467  138.1400  166.1882 C.3     1  UNL1        0.4340
     23 F         137.2794  137.6068  167.2898 F       1  UNL1       -0.1664
     24 F         138.2386  136.7654  165.5952 F       1  UNL1       -0.1664
     25 F         138.0547  139.5147  166.7812 F       1  UNL1       -0.1664
     26 C         142.2874  137.5209  158.1624 C.ar    1  UNL1        0.2203
     27 N         143.2097  136.3504  157.9910 N.ar    1  UNL1       -0.2121
     28 C         143.2475  135.6100  156.6870 C.ar    1  UNL1        0.1072
     29 C         142.3631  136.0402  155.5544 C.ar    1  UNL1        0.1097
     30 C         141.4410  137.2107  155.7258 C.ar    1  UNL1        0.1072
     31 N         141.4031  137.9511  157.0298 N.ar    1  UNL1       -0.2121
     32 C         142.4010  135.2998  154.2504 C.3     1  UNL1        0.4215
     33 F         142.4388  134.5595  152.9464 F       1  UNL1       -0.1657
     34 F         142.5061  133.9999  154.9915 F       1  UNL1       -0.1657
     35 F         142.2959  136.5997  153.5093 F       1  UNL1       -0.1657
@<TRIPOS>BOND
     1    20    21    1
     2    21    19    1
     3    19     9    1
     4     9    10   ar
     5    10    11   ar
     6    11    12   ar
     7    12    15    1
     8    15    16    1
     9    15    17    2
    10    15    18    2
    11    12    13   ar
    12    13    14   ar
    13    14     1    1
    14     1     2    2
    15     1     3   am
    16     3     4    1
    17     4     5    1
    18     5     6    1
    19     6    26    1
    20    26    27   ar
    21    27    28   ar
    22    28    29   ar
    23    29    32    1
    24    32    33    1
    25    32    34    1
    26    32    35    1
    27    29    30   ar
    28    30    31   ar
    29     6     7    1
    30     7     8    1
    31    21    22    1
    32    22    23    1
    33    22    24    1
    34    22    25    1
    35    14     9   ar
    36     8     3    1
    37    31    26   ar
@<TRIPOS>MOLECULE
*****
 35 37 0 0 0
SMALL
GASTEIGER

@<TRIPOS>ATOM
      1 C         138.7204  141.6546  162.2442 C.2     1  UNL1        0.2521
      2 O         137.3426  142.2394  162.1458 O.2     1  UNL1       -0.2698
      3 N         139.2301  140.7496  161.1621 N.am    1  UNL1       -0.2725
      4 C         140.6080  140.1648  161.2606 C.3     1  UNL1        0.1152
      5 C         141.1177  139.2597  160.1784 C.3     1  UNL1        0.1151
      6 N         140.2496  138.9394  158.9978 N.pl3   1  UNL1       -0.2747
      7 C         138.8718  139.5242  158.8993 C.3     1  UNL1        0.1151
      8 C         138.3621  140.4292  159.9815 C.3     1  UNL1        0.1152
      9 C         139.3093  141.3407  164.7552 C.ar    1  UNL1        0.1432
     10 C         140.1775  141.6610  165.9357 C.ar    1  UNL1        0.0384
     11 C         141.3248  142.6155  165.7859 C.ar    1  UNL1        0.0215
     12 C         141.6041  143.2498  164.4556 C.ar    1  UNL1        0.1061
     13 C         140.7359  142.9294  163.2751 C.ar    1  UNL1        0.0259
     14 C         139.5886  141.9749  163.4249 C.ar    1  UNL1        0.0887
     15 S         142.7514  144.2043  164.3059 S.O2    1  UNL1        0.0105
     16 C         143.8988  145.1588  164.1561 C.3     1  UNL1        0.1816
     17 O         141.8381  145.1999  163.6542 O.2     1  UNL1       -0.1686
     18 O         143.6648  143.2087  164.9575 O.2     1  UNL1       -0.1686
     19 O         138.1620  140.3862  164.9049 O.3     1  UNL1       -0.4702
     20 C         137.9825  138.3259  166.4775 C.3     1  UNL1        0.0566
     21 C         138.4245  138.9352  165.1800 C.3     1  UNL1        0.2599
     22 C         139.1290  138.0934  164.1577 C.3     1  UNL1        0.4340
     23 F         139.8335  137.2517  163.1354 F       1  UNL1       -0.1664
     24 F         138.0905  138.4607  163.1396 F       1  UNL1       -0.1664
     25 F         140.1675  137.7262  165.1757 F       1  UNL1       -0.1664
     26 C         140.7593  138.0344  157.9156 C.ar    1  UNL1        0.2203
     27 N         139.8290  137.5491  156.8437 N.ar    1  UNL1       -0.2121
     28 C         140.3387  136.6440  155.7615 C.ar    1  UNL1        0.1072
     29 C         141.7788  136.2242  155.7513 C.ar    1  UNL1        0.1097
     30 C         142.7090  136.7095  156.8232 C.ar    1  UNL1        0.1072
     31 N         142.1993  137.6146  157.9054 N.ar    1  UNL1       -0.2121
     32 C         142.2885  135.3192  154.6692 C.3     1  UNL1        0.4215
     33 F         142.7982  134.4141  153.5870 F       1  UNL1       -0.1657
     34 F         140.8813  135.0748  154.2108 F       1  UNL1       -0.1657
     35 F         143.6957  135.5636  155.1276 F       1  UNL1       -0.1657
@<TRIPOS>BOND
     1    20    21    1
     2    21    19    1
     3    19     9    1
     4     9    10   ar
     5    10    11   ar
     6    11    12   ar
     7    12    15    1
     8    15    16    1
     9    15    17    2
    10    15    18    2
    11    12    13   ar
    12    13    14   ar
    13    14     1    1
    14     1     2    2
    15     1     3   am
    16     3     4    1
    17     4     5    1
    18     5     6    1
    19     6    26    1
    20    26    27   ar
    21    27    28   ar
    22    28    29   ar
    23    29    32    1
    24    32    33    1
    25    32    34    1
    26    32    35    1
    27    29    30   ar
    28    30    31   ar
    29     6     7    1
    30     7     8    1
    31    21    22    1
    32    22    23    1
    33    22    24    1
    34    22    25    1
    35    14     9   ar
    36     8     3    1
    37    31    26   ar
@<TRIPOS>MOLECULE
*****
 35 37 0 0 0
SMALL
GASTEIGER

@<TRIPOS>ATOM
      1 C         139.1955  140.2812  164.3220 C.2     1  UNL1        0.2521
      2 O         137.7603  140.2488  164.7568 O.2     1  UNL1       -0.2698
      3 N         139.5808  139.7638  162.9678 N.am    1  UNL1       -0.2725
      4 C         141.0161  139.7962  162.5331 C.3     1  UNL1        0.1152
      5 C         141.4014  139.2789  161.1788 C.3     1  UNL1        0.1151
      6 N         140.3513  138.7292  160.2594 N.pl3   1  UNL1       -0.2747
      7 C         138.9161  138.6968  160.6941 C.3     1  UNL1        0.1151
      8 C         138.5308  139.2141  162.0484 C.3     1  UNL1        0.1152
      9 C         140.8759  142.1604  164.9503 C.ar    1  UNL1        0.1432
     10 C         141.9259  142.7101  165.8697 C.ar    1  UNL1        0.0384
     11 C         142.3454  141.9302  167.0804 C.ar    1  UNL1        0.0215
     12 C         141.7150  140.6006  167.3716 C.ar    1  UNL1        0.1061
     13 C         140.6651  140.0510  166.4522 C.ar    1  UNL1        0.0259
     14 C         140.2455  140.8309  165.2415 C.ar    1  UNL1        0.0887
     15 S         142.1346  139.8207  168.5823 S.O2    1  UNL1        0.0105
     16 C         142.5541  139.0408  169.7930 C.3     1  UNL1        0.1816
     17 O         143.1133  139.0501  167.7467 O.2     1  UNL1       -0.1686
     18 O         141.1559  140.5914  169.4179 O.2     1  UNL1       -0.1686
     19 O         140.4564  142.9403  163.7396 O.3     1  UNL1       -0.4702
     20 C         138.1871  143.4055  162.5632 C.3     1  UNL1        0.0566
     21 C         139.1228  143.6265  163.7145 C.3     1  UNL1        0.2599
     22 C         138.7248  144.5338  164.8409 C.3     1  UNL1        0.4340
     23 F         138.3270  145.4410  165.9672 F       1  UNL1       -0.1664
     24 F         137.4387  143.7776  164.9957 F       1  UNL1       -0.1664
     25 F         140.0110  145.2900  164.6861 F       1  UNL1       -0.1664
     26 C         140.7366  138.2118  158.9051 C.ar    1  UNL1        0.2203
     27 N         142.1771  137.9376  158.5890 N.ar    1  UNL1       -0.2121
     28 C         142.5624  137.4203  157.2348 C.ar    1  UNL1        0.1072
     29 C         141.5072  137.1771  156.1967 C.ar    1  UNL1        0.1097
     30 C         140.0668  137.4513  156.5129 C.ar    1  UNL1        0.1072
     31 N         139.6815  137.9687  157.8671 N.ar    1  UNL1       -0.2121
     32 C         141.8925  136.6598  154.8425 C.3     1  UNL1        0.4215
     33 F         142.2778  136.1424  153.4883 F       1  UNL1       -0.1657
     34 F         141.0309  135.4512  155.0591 F       1  UNL1       -0.1657
     35 F         142.7541  137.8684  154.6259 F       1  UNL1       -0.1657
@<TRIPOS>BOND
     1    20    21    1
     2    21    19    1
     3    19     9    1
     4     9    10   ar
     5    10    11   ar
     6    11    12   ar
     7    12    15    1
     8    15    16    1
     9    15    17    2
    10    15    18    2
    11    12    13   ar
    12    13    14   ar
    13    14     1    1
    14     1     2    2
    15     1     3   am
    16     3     4    1
    17     4     5    1
    18     5     6    1
    19     6    26    1
    20    26    27   ar
    21    27    28   ar
    22    28    29   ar
    23    29    32    1
    24    32    33    1
    25    32    34    1
    26    32    35    1
    27    29    30   ar
    28    30    31   ar
    29     6     7    1
    30     7     8    1
    31    21    22    1
    32    22    23    1
    33    22    24    1
    34    22    25    1
    35    14     9   ar
    36     8     3    1
    37    31    26   ar
@<TRIPOS>MOLECULE
*****
 35 37 0 0 0
SMALL
GASTEIGER

@<TRIPOS>ATOM
      1 C         144.4084  141.4342  164.0558 C.2     1  UNL1        0.2521
      2 O         145.9049  141.3351  164.0359 O.2     1  UNL1       -0.2698
      3 N         143.6825  142.0566  162.9000 N.am    1  UNL1       -0.2725
      4 C         142.1859  142.1558  162.9199 C.3     1  UNL1        0.1152
      5 C         141.4600  142.7781  161.7642 C.3     1  UNL1        0.1151
      6 N         142.2309  143.3014  160.5885 N.pl3   1  UNL1       -0.2747
      7 C         143.7274  143.2023  160.5686 C.3     1  UNL1        0.1151
      8 C         144.4532  142.5799  161.7244 C.3     1  UNL1        0.1152
      9 C         143.2177  139.4716  165.2725 C.ar    1  UNL1        0.1432
     10 C         142.4469  138.9484  166.4481 C.ar    1  UNL1        0.0384
     11 C         142.0960  139.8646  167.5827 C.ar    1  UNL1        0.0215
     12 C         142.5159  141.3041  167.5417 C.ar    1  UNL1        0.1061
     13 C         143.2866  141.8272  166.3661 C.ar    1  UNL1        0.0259
     14 C         143.6375  140.9110  165.2315 C.ar    1  UNL1        0.0887
     15 S         142.1650  142.2203  168.6763 S.O2    1  UNL1        0.0105
     16 C         141.8141  143.1365  169.8110 C.3     1  UNL1        0.1816
     17 O         143.4209  141.8170  169.3904 O.2     1  UNL1       -0.1686
     18 O         140.9090  142.6235  167.9623 O.2     1  UNL1       -0.1686
     19 O         143.5686  138.5553  164.1379 O.3     1  UNL1       -0.4702
     20 C         141.3434  137.4692  163.3512 C.3     1  UNL1        0.0566
     21 C         142.5667  138.2851  163.0547 C.3     1  UNL1        0.2599
     22 C         142.7882  138.8306  161.6751 C.3     1  UNL1        0.4340
     23 F         143.0096  139.3761  160.2955 F       1  UNL1       -0.1664
     24 F         144.2644  138.8879  161.9346 F       1  UNL1       -0.1664
     25 F         141.3120  138.7734  161.4155 F       1  UNL1       -0.1664
     26 C         141.5050  143.9238  159.4327 C.ar    1  UNL1        0.2203
     27 N         141.9757  145.2313  158.8679 N.ar    1  UNL1       -0.2121
     28 C         141.2498  145.8537  157.7121 C.ar    1  UNL1        0.1072
     29 C         140.0534  145.1686  157.1212 C.ar    1  UNL1        0.1097
     30 C         139.5828  143.8611  157.6860 C.ar    1  UNL1        0.1072
     31 N         140.3086  143.2387  158.8418 N.ar    1  UNL1       -0.2121
     32 C         139.3275  145.7909  155.9654 C.3     1  UNL1        0.4215
     33 F         138.6017  146.4133  154.8096 F       1  UNL1       -0.1657
     34 F         138.3804  144.6282  155.9340 F       1  UNL1       -0.1657
     35 F         140.2746  146.9537  155.9968 F       1  UNL1       -0.1657
@<TRIPOS>BOND
     1    20    21    1
     2    21    19    1
     3    19     9    1
     4     9    10   ar
     5    10    11   ar
     6    11    12   ar
     7    12    15    1
     8    15    16    1
     9    15    17    2
    10    15    18    2
    11    12    13   ar
    12    13    14   ar
    13    14     1    1
    14     1     2    2
    15     1     3   am
    16     3     4    1
    17     4     5    1
    18     5     6    1
    19     6    26    1
    20    26    27   ar
    21    27    28   ar
    22    28    29   ar
    23    29    32    1
    24    32    33    1
    25    32    34    1
    26    32    35    1
    27    29    30   ar
    28    30    31   ar
    29     6     7    1
    30     7     8    1
    31    21    22    1
    32    22    23    1
    33    22    24    1
    34    22    25    1
    35    14     9   ar
    36     8     3    1
    37    31    26   ar
@<TRIPOS>MOLECULE
*****
 35 37 0 0 0
SMALL
GASTEIGER

@<TRIPOS>ATOM
      1 C         138.3543  141.4062  162.3330 C.2     1  UNL1        0.2521
      2 O         137.4690  142.5936  162.0957 O.2     1  UNL1       -0.2698
      3 N         138.8217  140.5758  161.1746 N.am    1  UNL1       -0.2725
      4 C         139.7070  139.3883  161.4119 C.3     1  UNL1        0.1152
      5 C         140.1744  138.5578  160.2535 C.3     1  UNL1        0.1151
      6 N         139.7564  138.9148  158.8578 N.pl3   1  UNL1       -0.2747
      7 C         138.8712  140.1022  158.6205 C.3     1  UNL1        0.1151
      8 C         138.4038  140.9327  159.7789 C.3     1  UNL1        0.1152
      9 C         139.7739  141.8995  164.4523 C.ar    1  UNL1        0.1432
     10 C         140.1918  141.5426  165.8479 C.ar    1  UNL1        0.0384
     11 C         139.6080  140.3353  166.5200 C.ar    1  UNL1        0.0215
     12 C         138.6063  139.4850  165.7964 C.ar    1  UNL1        0.1061
     13 C         138.1885  139.8420  164.4008 C.ar    1  UNL1        0.0259
     14 C         138.7722  141.0493  163.7287 C.ar    1  UNL1        0.0887
     15 S         138.0226  138.2777  166.4685 S.O2    1  UNL1        0.0105
     16 C         137.4388  137.0704  167.1405 C.3     1  UNL1        0.1816
     17 O         138.2577  137.4720  165.2253 O.2     1  UNL1       -0.1686
     18 O         137.7874  139.0834  167.7117 O.2     1  UNL1       -0.1686
     19 O         140.3577  143.1068  163.7802 O.3     1  UNL1       -0.4702
     20 C         138.8284  144.7163  165.1296 C.3     1  UNL1        0.0566
     21 C         139.6994  144.4453  163.9389 C.3     1  UNL1        0.2599
     22 C         139.9123  145.5128  162.9068 C.3     1  UNL1        0.4340
     23 F         140.1250  146.5803  161.8748 F       1  UNL1       -0.1664
     24 F         141.3447  145.6397  163.3333 F       1  UNL1       -0.1664
     25 F         138.4798  145.3860  162.4803 F       1  UNL1       -0.1664
     26 C         140.2238  138.0843  157.6994 C.ar    1  UNL1        0.2203
     27 N         141.6696  137.7006  157.5866 N.ar    1  UNL1       -0.2121
     28 C         142.1369  136.8702  156.4283 C.ar    1  UNL1        0.1072
     29 C         141.1585  136.4234  155.3826 C.ar    1  UNL1        0.1097
     30 C         139.7129  136.8071  155.4955 C.ar    1  UNL1        0.1072
     31 N         139.2455  137.6375  156.6539 N.ar    1  UNL1       -0.2121
     32 C         141.6259  135.5929  154.2243 C.3     1  UNL1        0.4215
     33 F         142.0933  134.7624  153.0659 F       1  UNL1       -0.1657
     34 F         142.6902  134.9853  155.0892 F       1  UNL1       -0.1657
     35 F         140.5616  136.2005  153.3593 F       1  UNL1       -0.1657
@<TRIPOS>BOND
     1    20    21    1
     2    21    19    1
     3    19     9    1
     4     9    10   ar
     5    10    11   ar
     6    11    12   ar
     7    12    15    1
     8    15    16    1
     9    15    17    2
    10    15    18    2
    11    12    13   ar
    12    13    14   ar
    13    14     1    1
    14     1     2    2
    15     1     3   am
    16     3     4    1
    17     4     5    1
    18     5     6    1
    19     6    26    1
    20    26    27   ar
    21    27    28   ar
    22    28    29   ar
    23    29    32    1
    24    32    33    1
    25    32    34    1
    26    32    35    1
    27    29    30   ar
    28    30    31   ar
    29     6     7    1
    30     7     8    1
    31    21    22    1
    32    22    23    1
    33    22    24    1
    34    22    25    1
    35    14     9   ar
    36     8     3    1
    37    31    26   ar
