@<TRIPOS>MOLECULE
*****
 36 39 0 0 0
SMALL
GASTEIGER

@<TRIPOS>ATOM
      1 C         137.8956  140.6911  161.6228 C.3     1  UNL1        0.2722
      2 O         138.0956  141.6817  159.2293 O.2     1  UNL1       -0.2707
      3 C         138.5801  141.6014  160.6466 C.2     1  UNL1        0.2701
      4 N         139.7491  142.4314  161.0877 N.am    1  UNL1       -0.2663
      5 H         140.0671  142.3787  162.0179 H       1  UNL1        0.1564
      6 C         140.4336  143.3416  160.1115 C.ar    1  UNL1        0.1344
      7 C         141.7745  142.9690  159.5518 C.ar    1  UNL1        0.0368
      8 C         142.4589  143.8792  158.5756 C.ar    1  UNL1        0.0341
      9 C         141.8025  145.1621  158.1591 C.ar    1  UNL1        0.1593
     10 F         142.4870  146.0723  157.1829 F       1  UNL1       -0.2025
     11 C         140.4617  145.5347  158.7188 C.ar    1  UNL1        0.1298
     12 N         139.7772  144.6244  159.6950 N.ar    1  UNL1       -0.2267
     13 C         137.7960  139.2223  161.3358 C.3     1  UNL1        0.1952
     14 O         139.0423  138.4008  161.1874 O.3     1  UNL1       -0.3467
     15 C         140.2789  138.7694  161.9523 C.3     1  UNL1        0.1740
     16 C         140.6548  138.0020  163.1851 C.3     1  UNL1        0.1692
     17 O         141.2866  136.6471  163.0617 O.3     1  UNL1       -0.3794
     18 H         140.6495  136.0276  162.6728 H       1  UNL1        0.2105
     19 O         137.3109  141.2498  162.8861 O.3     1  UNL1       -0.4517
     20 C         138.2142  141.7724  163.9637 C.ar    1  UNL1        0.2312
     21 N         138.7398  143.1752  163.8868 N.ar    1  UNL1       -0.1892
     22 C         139.6430  143.6977  164.9644 C.ar    1  UNL1        0.2029
     23 N         140.0206  142.8174  166.1187 N.ar    1  UNL1       -0.2046
     24 C         139.4950  141.4146  166.1955 C.ar    1  UNL1        0.1716
     25 C         138.5918  140.8921  165.1180 C.ar    1  UNL1        0.1098
     26 C         138.2314  139.4770  165.4610 C.ar    1  UNL1        0.1283
     27 N         138.9119  139.1250  166.7506 N.ar    1  UNL1       -0.1619
     28 N         139.6929  140.3225  167.2045 N.ar    1  UNL1       -0.2089
     29 C         140.5255  140.4121  168.4490 C.ar    1  UNL1        0.1222
     30 C         139.8621  140.5558  169.7866 C.ar    1  UNL1        0.1585
     31 F         138.3659  140.6098  169.8798 F       1  UNL1       -0.2026
     32 C         140.6947  140.6454  171.0310 C.ar    1  UNL1        0.0313
     33 C         142.1909  140.5914  170.9379 C.ar    1  UNL1        0.0033
     34 C         142.8543  140.4477  169.6003 C.ar    1  UNL1        0.0131
     35 C         142.0216  140.3581  168.3558 C.ar    1  UNL1        0.0776
     36 CL        142.6851  140.2144  167.0183 Cl      1  UNL1       -0.0806
@<TRIPOS>BOND
     1     2     3    2
     2     3     4   am
     3     4     6    1
     4     6     7   ar
     5     7     8   ar
     6     8     9   ar
     7     9    10    1
     8     9    11   ar
     9    11    12   ar
    10     3     1    1
    11     1    13    1
    12    13    14    1
    13    14    15    1
    14    15    16    1
    15    16    17    1
    16     1    19    1
    17    19    20    1
    18    20    21   ar
    19    21    22   ar
    20    22    23   ar
    21    23    24   ar
    22    24    25   ar
    23    25    26   ar
    24    26    27   ar
    25    27    28   ar
    26    28    29    1
    27    29    30   ar
    28    30    31    1
    29    30    32   ar
    30    32    33   ar
    31    33    34   ar
    32    34    35   ar
    33    35    36    1
    34    12     6   ar
    35    25    20   ar
    36    35    29   ar
    37    28    24   ar
    38     4     5    1
    39    17    18    1
@<TRIPOS>MOLECULE
*****
 36 39 0 0 0
SMALL
GASTEIGER

@<TRIPOS>ATOM
      1 C         137.8263  140.5236  161.7453 C.3     1  UNL1        0.2722
      2 O         140.2423  140.9155  160.8737 O.2     1  UNL1       -0.2707
      3 C         138.8222  141.3769  161.0171 C.2     1  UNL1        0.2701
      4 N         138.3980  142.6914  160.4324 N.am    1  UNL1       -0.2663
      5 H         137.4660  142.9942  160.5265 H       1  UNL1        0.1564
      6 C         139.3938  143.5447  159.7042 C.ar    1  UNL1        0.1344
      7 C         139.4470  143.5220  158.2053 C.ar    1  UNL1        0.0368
      8 C         140.4428  144.3752  157.4772 C.ar    1  UNL1        0.0341
      9 C         141.3855  145.2512  158.2479 C.ar    1  UNL1        0.1593
     10 F         142.3813  146.1045  157.5197 F       1  UNL1       -0.2025
     11 C         141.3324  145.2739  159.7468 C.ar    1  UNL1        0.1298
     12 N         140.3365  144.4206  160.4749 N.ar    1  UNL1       -0.2267
     13 C         137.3598  139.2329  161.1400 C.3     1  UNL1        0.1952
     14 O         138.0584  137.9496  161.4793 O.3     1  UNL1       -0.3467
     15 C         138.7906  137.8160  162.7817 C.3     1  UNL1        0.1740
     16 C         140.2905  137.8185  162.8025 C.3     1  UNL1        0.1692
     17 O         141.0371  139.1162  162.8939 O.3     1  UNL1       -0.3794
     18 H         140.8851  139.6341  162.0879 H       1  UNL1        0.2105
     19 O         137.2970  140.9611  163.0789 O.3     1  UNL1       -0.4517
     20 C         138.1372  141.8242  163.9729 C.ar    1  UNL1        0.2312
     21 N         138.2710  143.2911  163.6894 N.ar    1  UNL1       -0.1892
     22 C         139.1112  144.1541  164.5834 C.ar    1  UNL1        0.2029
     23 N         139.8176  143.5503  165.7608 N.ar    1  UNL1       -0.2046
     24 C         139.6839  142.0834  166.0443 C.ar    1  UNL1        0.1716
     25 C         138.8437  141.2204  165.1503 C.ar    1  UNL1        0.1098
     26 C         138.8984  139.8166  165.6762 C.ar    1  UNL1        0.1283
     27 N         139.7725  139.8121  166.8952 N.ar    1  UNL1       -0.1619
     28 N         140.2579  141.2131  167.1227 N.ar    1  UNL1       -0.2089
     29 C         141.1592  141.6645  168.2335 C.ar    1  UNL1        0.1222
     30 C         142.5797  142.0456  167.9389 C.ar    1  UNL1        0.1585
     31 F         143.0991  141.9753  166.5334 F       1  UNL1       -0.2026
     32 C         143.4809  142.4970  169.0498 C.ar    1  UNL1        0.0313
     33 C         142.9617  142.5673  170.4553 C.ar    1  UNL1        0.0033
     34 C         141.5411  142.1862  170.7498 C.ar    1  UNL1        0.0131
     35 C         140.6399  141.7348  169.6390 C.ar    1  UNL1        0.0776
     36 CL        139.2194  141.3537  169.9337 Cl      1  UNL1       -0.0806
@<TRIPOS>BOND
     1     2     3    2
     2     3     4   am
     3     4     6    1
     4     6     7   ar
     5     7     8   ar
     6     8     9   ar
     7     9    10    1
     8     9    11   ar
     9    11    12   ar
    10     3     1    1
    11     1    13    1
    12    13    14    1
    13    14    15    1
    14    15    16    1
    15    16    17    1
    16     1    19    1
    17    19    20    1
    18    20    21   ar
    19    21    22   ar
    20    22    23   ar
    21    23    24   ar
    22    24    25   ar
    23    25    26   ar
    24    26    27   ar
    25    27    28   ar
    26    28    29    1
    27    29    30   ar
    28    30    31    1
    29    30    32   ar
    30    32    33   ar
    31    33    34   ar
    32    34    35   ar
    33    35    36    1
    34    12     6   ar
    35    25    20   ar
    36    35    29   ar
    37    28    24   ar
    38     4     5    1
    39    17    18    1
@<TRIPOS>MOLECULE
*****
 36 39 0 0 0
SMALL
GASTEIGER

@<TRIPOS>ATOM
      1 C         141.2291  144.4705  159.6424 C.3     1  UNL1        0.2722
      2 O         142.4220  146.1887  158.1013 O.2     1  UNL1       -0.2707
      3 C         141.2196  145.3546  158.4306 C.2     1  UNL1        0.2701
      4 N         140.0076  145.4046  157.5482 N.am    1  UNL1       -0.2663
      5 H         139.2184  144.8571  157.7643 H       1  UNL1        0.1564
      6 C         139.9981  146.2886  156.3364 C.ar    1  UNL1        0.1344
      7 C         139.1539  147.5284  156.3192 C.ar    1  UNL1        0.0368
      8 C         139.1444  148.4125  155.1075 C.ar    1  UNL1        0.0341
      9 C         139.9790  148.0567  153.9129 C.ar    1  UNL1        0.1593
     10 F         139.9694  148.9408  152.7012 F       1  UNL1       -0.2025
     11 C         140.8231  146.8169  153.9301 C.ar    1  UNL1        0.1298
     12 N         140.8326  145.9329  155.1420 N.ar    1  UNL1       -0.2267
     13 C         139.9382  144.0990  160.3099 C.3     1  UNL1        0.1952
     14 O         139.4376  144.9016  161.4740 O.3     1  UNL1       -0.3467
     15 C         138.6793  144.2277  162.5790 C.3     1  UNL1        0.1740
     16 C         139.0276  144.5127  164.0099 C.3     1  UNL1        0.1692
     17 O         140.2788  145.2711  164.3406 O.3     1  UNL1       -0.3794
     18 H         141.0527  144.7442  164.0870 H       1  UNL1        0.2105
     19 O         142.5295  143.9579  160.1866 O.3     1  UNL1       -0.4517
     20 C         142.7386  143.8680  161.6693 C.ar    1  UNL1        0.2312
     21 N         143.4325  144.9806  162.3977 N.ar    1  UNL1       -0.1892
     22 C         143.6417  144.8906  163.8803 C.ar    1  UNL1        0.2029
     23 N         143.1569  143.6880  164.6345 N.ar    1  UNL1       -0.2046
     24 C         142.4630  142.5754  163.9061 C.ar    1  UNL1        0.1716
     25 C         142.2538  142.6654  162.4235 C.ar    1  UNL1        0.1098
     26 C         141.5420  141.4219  161.9794 C.ar    1  UNL1        0.1283
     27 N         141.3112  140.5635  163.1876 N.ar    1  UNL1       -0.1619
     28 N         141.8804  141.2764  164.3783 N.ar    1  UNL1       -0.2089
     29 C         141.8690  140.7778  165.7930 C.ar    1  UNL1        0.1222
     30 C         140.9050  141.3580  166.7850 C.ar    1  UNL1        0.1585
     31 F         139.9524  142.4368  166.3624 F       1  UNL1       -0.2026
     32 C         140.8937  140.8594  168.1997 C.ar    1  UNL1        0.0313
     33 C         141.8463  139.7805  168.6223 C.ar    1  UNL1        0.0033
     34 C         142.8102  139.2003  167.6303 C.ar    1  UNL1        0.0131
     35 C         142.8216  139.6989  166.2157 C.ar    1  UNL1        0.0776
     36 CL        143.7856  139.1187  165.2237 Cl      1  UNL1       -0.0806
@<TRIPOS>BOND
     1     2     3    2
     2     3     4   am
     3     4     6    1
     4     6     7   ar
     5     7     8   ar
     6     8     9   ar
     7     9    10    1
     8     9    11   ar
     9    11    12   ar
    10     3     1    1
    11     1    13    1
    12    13    14    1
    13    14    15    1
    14    15    16    1
    15    16    17    1
    16     1    19    1
    17    19    20    1
    18    20    21   ar
    19    21    22   ar
    20    22    23   ar
    21    23    24   ar
    22    24    25   ar
    23    25    26   ar
    24    26    27   ar
    25    27    28   ar
    26    28    29    1
    27    29    30   ar
    28    30    31    1
    29    30    32   ar
    30    32    33   ar
    31    33    34   ar
    32    34    35   ar
    33    35    36    1
    34    12     6   ar
    35    25    20   ar
    36    35    29   ar
    37    28    24   ar
    38     4     5    1
    39    17    18    1
@<TRIPOS>MOLECULE
*****
 36 39 0 0 0
SMALL
GASTEIGER

@<TRIPOS>ATOM
      1 C         142.0973  138.0439  161.8941 C.3     1  UNL1        0.2722
      2 O         141.6029  138.5337  159.3910 O.2     1  UNL1       -0.2707
      3 C         141.3449  138.8055  160.8434 C.2     1  UNL1        0.2701
      4 N         140.3346  139.8389  161.2451 N.am    1  UNL1       -0.2663
      5 H         140.1653  140.0173  162.1984 H       1  UNL1        0.1564
      6 C         139.5823  140.6005  160.1945 C.ar    1  UNL1        0.1344
      7 C         139.8401  142.0654  160.0010 C.ar    1  UNL1        0.0368
      8 C         139.0877  142.8270  158.9504 C.ar    1  UNL1        0.0341
      9 C         138.0775  142.1236  158.0931 C.ar    1  UNL1        0.1593
     10 F         137.3252  142.8852  157.0424 F       1  UNL1       -0.2025
     11 C         137.8198  140.6587  158.2865 C.ar    1  UNL1        0.1298
     12 N         138.5722  139.8971  159.3373 N.ar    1  UNL1       -0.2267
     13 C         143.5972  138.0314  161.8818 C.3     1  UNL1        0.1952
     14 O         144.3544  139.2682  161.4985 O.3     1  UNL1       -0.3467
     15 C         144.2457  140.5052  162.3400 C.3     1  UNL1        0.1740
     16 C         145.2398  140.7574  163.4346 C.3     1  UNL1        0.1692
     17 O         146.3384  141.7587  163.2339 O.3     1  UNL1       -0.3794
     18 H         146.9383  141.4456  162.5388 H       1  UNL1        0.2105
     19 O         141.3497  137.2948  162.9571 O.3     1  UNL1       -0.4517
     20 C         140.6018  138.0458  164.0186 C.ar    1  UNL1        0.2312
     21 N         139.1125  138.1965  163.9225 N.ar    1  UNL1       -0.1892
     22 C         138.3646  138.9474  164.9840 C.ar    1  UNL1        0.2029
     23 N         139.1061  139.5476  166.1416 N.ar    1  UNL1       -0.2046
     24 C         140.5953  139.3969  166.2377 C.ar    1  UNL1        0.1716
     25 C         141.3432  138.6460  165.1762 C.ar    1  UNL1        0.1098
     26 C         142.7993  138.6608  165.5366 C.ar    1  UNL1        0.1283
     27 N         142.9512  139.4208  166.8208 N.ar    1  UNL1       -0.1619
     28 N         141.5891  139.8758  167.2541 N.ar    1  UNL1       -0.2089
     29 C         141.2758  140.6702  168.4873 C.ar    1  UNL1        0.1222
     30 C         141.5051  140.0717  169.8434 C.ar    1  UNL1        0.1585
     31 F         142.0478  138.6787  169.9664 F       1  UNL1       -0.2026
     32 C         141.1918  140.8661  171.0766 C.ar    1  UNL1        0.0313
     33 C         140.6492  142.2591  170.9537 C.ar    1  UNL1        0.0033
     34 C         140.4199  142.8576  169.5975 C.ar    1  UNL1        0.0131
     35 C         140.7332  142.0632  168.3643 C.ar    1  UNL1        0.0776
     36 CL        140.5038  142.6618  167.0082 Cl      1  UNL1       -0.0806
@<TRIPOS>BOND
     1     2     3    2
     2     3     4   am
     3     4     6    1
     4     6     7   ar
     5     7     8   ar
     6     8     9   ar
     7     9    10    1
     8     9    11   ar
     9    11    12   ar
    10     3     1    1
    11     1    13    1
    12    13    14    1
    13    14    15    1
    14    15    16    1
    15    16    17    1
    16     1    19    1
    17    19    20    1
    18    20    21   ar
    19    21    22   ar
    20    22    23   ar
    21    23    24   ar
    22    24    25   ar
    23    25    26   ar
    24    26    27   ar
    25    27    28   ar
    26    28    29    1
    27    29    30   ar
    28    30    31    1
    29    30    32   ar
    30    32    33   ar
    31    33    34   ar
    32    34    35   ar
    33    35    36    1
    34    12     6   ar
    35    25    20   ar
    36    35    29   ar
    37    28    24   ar
    38     4     5    1
    39    17    18    1
@<TRIPOS>MOLECULE
*****
 36 39 0 0 0
SMALL
GASTEIGER

@<TRIPOS>ATOM
      1 C         139.5633  138.0325  161.5496 C.3     1  UNL1        0.2722
      2 O         139.4377  139.0232  159.1511 O.2     1  UNL1       -0.2707
      3 C         140.2404  138.4330  160.2724 C.2     1  UNL1        0.2701
      4 N         141.7201  138.2433  160.1166 N.am    1  UNL1       -0.2663
      5 H         142.2470  137.8560  160.8525 H       1  UNL1        0.1564
      6 C         142.3972  138.6438  158.8394 C.ar    1  UNL1        0.1344
      7 C         142.4536  137.6846  157.6876 C.ar    1  UNL1        0.0368
      8 C         143.1307  138.0851  156.4105 C.ar    1  UNL1        0.0341
      9 C         143.7515  139.4449  156.2851 C.ar    1  UNL1        0.1593
     10 F         144.4286  139.8453  155.0080 F       1  UNL1       -0.2025
     11 C         143.6951  140.4041  157.4369 C.ar    1  UNL1        0.1298
     12 N         143.0180  140.0036  158.7141 N.ar    1  UNL1       -0.2267
     13 C         138.1156  138.3602  161.7658 C.3     1  UNL1        0.1952
     14 O         137.7301  139.6340  162.4576 O.3     1  UNL1       -0.3467
     15 C         138.5732  140.8634  162.2900 C.3     1  UNL1        0.1740
     16 C         138.2274  141.8718  161.2348 C.3     1  UNL1        0.1692
     17 O         137.5613  143.1599  161.6180 O.3     1  UNL1       -0.3794
     18 H         136.6737  142.9749  161.9627 H       1  UNL1        0.2105
     19 O         140.3340  137.3043  162.6107 O.3     1  UNL1       -0.4517
     20 C         141.2863  138.0545  163.4941 C.ar    1  UNL1        0.2312
     21 N         142.7216  138.2110  163.0875 N.ar    1  UNL1       -0.1892
     22 C         143.6738  138.9612  163.9709 C.ar    1  UNL1        0.2029
     23 N         143.1907  139.5549  165.2610 N.ar    1  UNL1       -0.2046
     24 C         141.7554  139.3984  165.6676 C.ar    1  UNL1        0.1716
     25 C         140.8032  138.6482  164.7841 C.ar    1  UNL1        0.1098
     26 C         139.4554  138.6564  165.4427 C.ar    1  UNL1        0.1283
     27 N         139.5748  139.4116  166.7332 N.ar    1  UNL1       -0.1619
     28 N         140.9962  139.8702  166.8721 N.ar    1  UNL1       -0.2089
     29 C         141.5596  140.6617  168.0150 C.ar    1  UNL1        0.1222
     30 C         142.4612  139.9990  169.0139 C.ar    1  UNL1        0.1585
     31 F         142.7995  138.5447  168.8700 F       1  UNL1       -0.2026
     32 C         143.0246  140.7904  170.1568 C.ar    1  UNL1        0.0313
     33 C         142.6864  142.2447  170.3008 C.ar    1  UNL1        0.0033
     34 C         141.7848  142.9074  169.3019 C.ar    1  UNL1        0.0131
     35 C         141.2214  142.1159  168.1590 C.ar    1  UNL1        0.0776
     36 CL        140.3198  142.7787  167.1602 Cl      1  UNL1       -0.0806
@<TRIPOS>BOND
     1     2     3    2
     2     3     4   am
     3     4     6    1
     4     6     7   ar
     5     7     8   ar
     6     8     9   ar
     7     9    10    1
     8     9    11   ar
     9    11    12   ar
    10     3     1    1
    11     1    13    1
    12    13    14    1
    13    14    15    1
    14    15    16    1
    15    16    17    1
    16     1    19    1
    17    19    20    1
    18    20    21   ar
    19    21    22   ar
    20    22    23   ar
    21    23    24   ar
    22    24    25   ar
    23    25    26   ar
    24    26    27   ar
    25    27    28   ar
    26    28    29    1
    27    29    30   ar
    28    30    31    1
    29    30    32   ar
    30    32    33   ar
    31    33    34   ar
    32    34    35   ar
    33    35    36    1
    34    12     6   ar
    35    25    20   ar
    36    35    29   ar
    37    28    24   ar
    38     4     5    1
    39    17    18    1
@<TRIPOS>MOLECULE
*****
 36 39 0 0 0
SMALL
GASTEIGER

@<TRIPOS>ATOM
      1 C         142.3697  139.1417  168.8482 C.3     1  UNL1        0.2722
      2 O         143.5977  139.4512  171.1168 O.2     1  UNL1       -0.2707
      3 C         143.2099  138.5818  169.9576 C.2     1  UNL1        0.2701
      4 N         143.6624  137.1526  169.9076 N.am    1  UNL1       -0.2663
      5 H         143.4079  136.5820  169.1468 H       1  UNL1        0.1564
      6 C         144.5025  136.5927  171.0169 C.ar    1  UNL1        0.1344
      7 C         143.9140  135.6012  171.9764 C.ar    1  UNL1        0.0368
      8 C         144.7542  135.0413  173.0857 C.ar    1  UNL1        0.0341
      9 C         146.1830  135.4728  173.2355 C.ar    1  UNL1        0.1593
     10 F         147.0232  134.9129  174.3448 F       1  UNL1       -0.2025
     11 C         146.7715  136.4643  172.2760 C.ar    1  UNL1        0.1298
     12 N         145.9313  137.0242  171.1667 N.ar    1  UNL1       -0.2267
     13 C         141.0893  139.8562  169.1644 C.3     1  UNL1        0.1952
     14 O         141.0450  141.3555  169.1551 O.3     1  UNL1       -0.3467
     15 C         141.4258  142.1248  170.3854 C.3     1  UNL1        0.1740
     16 C         142.1427  143.4362  170.2580 C.3     1  UNL1        0.1692
     17 O         143.4075  143.6774  171.0273 O.3     1  UNL1       -0.3794
     18 H         143.2105  143.6917  171.9770 H       1  UNL1        0.2105
     19 O         142.8099  138.9871  167.4226 O.3     1  UNL1       -0.4517
     20 C         141.9648  139.5383  166.3127 C.ar    1  UNL1        0.2312
     21 N         140.8535  138.7128  165.7352 N.ar    1  UNL1       -0.1892
     22 C         140.0084  139.2640  164.6254 C.ar    1  UNL1        0.2029
     23 N         140.2746  140.6409  164.0929 N.ar    1  UNL1       -0.2046
     24 C         141.3859  141.4664  164.6703 C.ar    1  UNL1        0.1716
     25 C         142.2310  140.9152  165.7802 C.ar    1  UNL1        0.1098
     26 C         143.2486  141.9541  166.1480 C.ar    1  UNL1        0.1283
     27 N         143.0323  143.1475  165.2653 N.ar    1  UNL1       -0.1619
     28 N         141.8811  142.8461  164.3521 N.ar    1  UNL1       -0.2089
     29 C         141.3231  143.7633  163.3045 C.ar    1  UNL1        0.1222
     30 C         141.9545  143.8214  161.9452 C.ar    1  UNL1        0.1585
     31 F         143.1440  142.9624  161.6333 F       1  UNL1       -0.2026
     32 C         141.3965  144.7386  160.8976 C.ar    1  UNL1        0.0313
     33 C         140.2070  145.5977  161.2094 C.ar    1  UNL1        0.0033
     34 C         139.5757  145.5395  162.5688 C.ar    1  UNL1        0.0131
     35 C         140.1337  144.6223  163.6163 C.ar    1  UNL1        0.0776
     36 CL        139.5022  144.5642  164.9757 Cl      1  UNL1       -0.0806
@<TRIPOS>BOND
     1     2     3    2
     2     3     4   am
     3     4     6    1
     4     6     7   ar
     5     7     8   ar
     6     8     9   ar
     7     9    10    1
     8     9    11   ar
     9    11    12   ar
    10     3     1    1
    11     1    13    1
    12    13    14    1
    13    14    15    1
    14    15    16    1
    15    16    17    1
    16     1    19    1
    17    19    20    1
    18    20    21   ar
    19    21    22   ar
    20    22    23   ar
    21    23    24   ar
    22    24    25   ar
    23    25    26   ar
    24    26    27   ar
    25    27    28   ar
    26    28    29    1
    27    29    30   ar
    28    30    31    1
    29    30    32   ar
    30    32    33   ar
    31    33    34   ar
    32    34    35   ar
    33    35    36    1
    34    12     6   ar
    35    25    20   ar
    36    35    29   ar
    37    28    24   ar
    38     4     5    1
    39    17    18    1
@<TRIPOS>MOLECULE
*****
 36 39 0 0 0
SMALL
GASTEIGER

@<TRIPOS>ATOM
      1 C         137.7326  140.6099  161.7335 C.3     1  UNL1        0.2722
      2 O         138.1827  142.5696  160.0881 O.2     1  UNL1       -0.2707
      3 C         138.6225  141.2901  160.7357 C.2     1  UNL1        0.2701
      4 N         139.9523  140.6908  160.3856 N.am    1  UNL1       -0.2663
      5 H         140.2410  139.8510  160.8107 H       1  UNL1        0.1564
      6 C         140.8422  141.3709  159.3879 C.ar    1  UNL1        0.1344
      7 C         140.8757  140.8950  157.9658 C.ar    1  UNL1        0.0368
      8 C         141.7656  141.5751  156.9681 C.ar    1  UNL1        0.0341
      9 C         142.6220  142.7313  157.3925 C.ar    1  UNL1        0.1593
     10 F         143.5119  143.4114  156.3948 F       1  UNL1       -0.2025
     11 C         142.5884  143.2072  158.8146 C.ar    1  UNL1        0.1298
     12 N         141.6985  142.5270  159.8123 N.ar    1  UNL1       -0.2267
     13 C         137.5052  139.1297  161.6491 C.3     1  UNL1        0.1952
     14 O         138.6755  138.1925  161.6040 O.3     1  UNL1       -0.3467
     15 C         139.2289  137.6220  162.8762 C.3     1  UNL1        0.1740
     16 C         140.7125  137.4983  163.0597 C.3     1  UNL1        0.1692
     17 O         141.5844  137.1332  161.8950 O.3     1  UNL1       -0.3794
     18 H         141.3803  136.2291  161.6092 H       1  UNL1        0.2105
     19 O         137.0701  141.4100  162.8156 O.3     1  UNL1       -0.4517
     20 C         137.9020  142.2174  163.7676 C.ar    1  UNL1        0.2312
     21 N         137.9939  143.7059  163.6068 N.ar    1  UNL1       -0.1892
     22 C         138.8258  144.5131  164.5587 C.ar    1  UNL1        0.2029
     23 N         139.5658  143.8319  165.6715 N.ar    1  UNL1       -0.2046
     24 C         139.4739  142.3434  165.8323 C.ar    1  UNL1        0.1716
     25 C         138.6421  141.5361  164.8804 C.ar    1  UNL1        0.1098
     26 C         138.7409  140.0952  165.2855 C.ar    1  UNL1        0.1283
     27 N         139.6338  140.0120  166.4878 N.ar    1  UNL1       -0.1619
     28 N         140.0869  141.4014  166.8258 N.ar    1  UNL1       -0.2089
     29 C         140.9937  141.7821  167.9584 C.ar    1  UNL1        0.1222
     30 C         140.4636  141.8279  169.3608 C.ar    1  UNL1        0.1585
     31 F         139.0265  141.4929  169.6307 F       1  UNL1       -0.2026
     32 C         141.3704  142.2085  170.4934 C.ar    1  UNL1        0.0313
     33 C         142.8074  142.5435  170.2236 C.ar    1  UNL1        0.0033
     34 C         143.3375  142.4977  168.8212 C.ar    1  UNL1        0.0131
     35 C         142.4307  142.1171  167.6886 C.ar    1  UNL1        0.0776
     36 CL        142.9609  142.0713  166.2862 Cl      1  UNL1       -0.0806
@<TRIPOS>BOND
     1     2     3    2
     2     3     4   am
     3     4     6    1
     4     6     7   ar
     5     7     8   ar
     6     8     9   ar
     7     9    10    1
     8     9    11   ar
     9    11    12   ar
    10     3     1    1
    11     1    13    1
    12    13    14    1
    13    14    15    1
    14    15    16    1
    15    16    17    1
    16     1    19    1
    17    19    20    1
    18    20    21   ar
    19    21    22   ar
    20    22    23   ar
    21    23    24   ar
    22    24    25   ar
    23    25    26   ar
    24    26    27   ar
    25    27    28   ar
    26    28    29    1
    27    29    30   ar
    28    30    31    1
    29    30    32   ar
    30    32    33   ar
    31    33    34   ar
    32    34    35   ar
    33    35    36    1
    34    12     6   ar
    35    25    20   ar
    36    35    29   ar
    37    28    24   ar
    38     4     5    1
    39    17    18    1
@<TRIPOS>MOLECULE
*****
 36 39 0 0 0
SMALL
GASTEIGER

@<TRIPOS>ATOM
      1 C         142.2417  139.5586  167.5558 C.3     1  UNL1        0.2722
      2 O         139.7196  139.9224  167.0492 O.2     1  UNL1       -0.2707
      3 C         141.1530  140.3227  166.8623 C.2     1  UNL1        0.2701
      4 N         141.4978  141.4872  165.9818 N.am    1  UNL1       -0.2663
      5 H         142.4386  141.7499  165.8591 H       1  UNL1        0.1564
      6 C         140.4091  142.2513  165.2884 C.ar    1  UNL1        0.1344
      7 C         139.7955  141.7089  164.0317 C.ar    1  UNL1        0.0368
      8 C         138.7069  142.4730  163.3382 C.ar    1  UNL1        0.0341
      9 C         138.2318  143.7797  163.9014 C.ar    1  UNL1        0.1593
     10 F         137.1432  144.5438  163.2080 F       1  UNL1       -0.2025
     11 C         138.8454  144.3221  165.1581 C.ar    1  UNL1        0.1298
     12 N         139.9341  143.5579  165.8516 N.ar    1  UNL1       -0.2267
     13 C         142.4203  139.6873  169.0395 C.3     1  UNL1        0.1952
     14 O         141.2774  139.3818  169.9617 O.3     1  UNL1       -0.3467
     15 C         140.6762  140.4724  170.7979 C.3     1  UNL1        0.1740
     16 C         141.3200  141.8266  170.8399 C.3     1  UNL1        0.1692
     17 O         142.0963  142.2507  172.0512 O.3     1  UNL1       -0.3794
     18 H         141.4950  142.3333  172.8080 H       1  UNL1        0.2105
     19 O         143.1518  138.6658  166.7654 O.3     1  UNL1       -0.4517
     20 C         143.4249  138.9630  165.3207 C.ar    1  UNL1        0.2312
     21 N         144.5995  139.8143  164.9391 N.ar    1  UNL1       -0.1892
     22 C         144.8725  140.1115  163.4945 C.ar    1  UNL1        0.2029
     23 N         143.9710  139.5574  162.4314 N.ar    1  UNL1       -0.2046
     24 C         142.7964  138.7061  162.8129 C.ar    1  UNL1        0.1716
     25 C         142.5234  138.4089  164.2576 C.ar    1  UNL1        0.1098
     26 C         141.2990  137.5453  164.3299 C.ar    1  UNL1        0.1283
     27 N         140.8154  137.3088  162.9298 N.ar    1  UNL1       -0.1619
     28 N         141.7408  138.0262  161.9923 N.ar    1  UNL1       -0.2089
     29 C         141.6301  138.0581  160.4968 C.ar    1  UNL1        0.1222
     30 C         142.7237  137.4759  159.6511 C.ar    1  UNL1        0.1585
     31 F         143.9281  136.8618  160.3011 F       1  UNL1       -0.2026
     32 C         142.6130  137.5078  158.1556 C.ar    1  UNL1        0.0313
     33 C         141.4087  138.1220  157.5056 C.ar    1  UNL1        0.0033
     34 C         140.3151  138.7041  158.3512 C.ar    1  UNL1        0.0131
     35 C         140.4258  138.6722  159.8468 C.ar    1  UNL1        0.0776
     36 CL        139.3322  139.2544  160.6923 Cl      1  UNL1       -0.0806
@<TRIPOS>BOND
     1     2     3    2
     2     3     4   am
     3     4     6    1
     4     6     7   ar
     5     7     8   ar
     6     8     9   ar
     7     9    10    1
     8     9    11   ar
     9    11    12   ar
    10     3     1    1
    11     1    13    1
    12    13    14    1
    13    14    15    1
    14    15    16    1
    15    16    17    1
    16     1    19    1
    17    19    20    1
    18    20    21   ar
    19    21    22   ar
    20    22    23   ar
    21    23    24   ar
    22    24    25   ar
    23    25    26   ar
    24    26    27   ar
    25    27    28   ar
    26    28    29    1
    27    29    30   ar
    28    30    31    1
    29    30    32   ar
    30    32    33   ar
    31    33    34   ar
    32    34    35   ar
    33    35    36    1
    34    12     6   ar
    35    25    20   ar
    36    35    29   ar
    37    28    24   ar
    38     4     5    1
    39    17    18    1
@<TRIPOS>MOLECULE
*****
 36 39 0 0 0
SMALL
GASTEIGER

@<TRIPOS>ATOM
      1 C         137.8081  140.6499  161.9181 C.3     1  UNL1        0.2722
      2 O         137.6830  143.1925  161.3992 O.2     1  UNL1       -0.2707
      3 C         138.2771  141.8407  161.1357 C.2     1  UNL1        0.2701
      4 N         139.3401  141.6795  160.0898 N.am    1  UNL1       -0.2663
      5 H         139.7300  140.7922  159.9168 H       1  UNL1        0.1564
      6 C         139.8091  142.8702  159.3073 C.ar    1  UNL1        0.1344
      7 C         140.8393  143.7919  159.8897 C.ar    1  UNL1        0.0368
      8 C         141.3082  144.9826  159.1072 C.ar    1  UNL1        0.0341
      9 C         140.7470  145.2517  157.7424 C.ar    1  UNL1        0.1593
     10 F         141.2160  146.4424  156.9600 F       1  UNL1       -0.2025
     11 C         139.7168  144.3299  157.1601 C.ar    1  UNL1        0.1298
     12 N         139.2479  143.1392  157.9426 N.ar    1  UNL1       -0.2267
     13 C         137.8684  139.2807  161.3084 C.3     1  UNL1        0.1952
     14 O         139.1933  138.6069  161.1074 O.3     1  UNL1       -0.3467
     15 C         139.8107  137.8182  162.2240 C.3     1  UNL1        0.1740
     16 C         141.2952  137.8543  162.4362 C.3     1  UNL1        0.1692
     17 O         142.2081  137.1589  161.4703 O.3     1  UNL1       -0.3794
     18 H         142.0606  136.2014  161.5182 H       1  UNL1        0.2105
     19 O         137.2789  140.8283  163.3103 O.3     1  UNL1       -0.4517
     20 C         138.1160  140.4258  164.4882 C.ar    1  UNL1        0.2312
     21 N         138.1400  138.9948  164.9372 N.ar    1  UNL1       -0.1892
     22 C         138.9770  138.5923  166.1151 C.ar    1  UNL1        0.2029
     23 N         139.7900  139.6208  166.8438 N.ar    1  UNL1       -0.2046
     24 C         139.7660  141.0518  166.3948 C.ar    1  UNL1        0.1716
     25 C         138.9290  141.4543  165.2170 C.ar    1  UNL1        0.1098
     26 C         139.1036  142.9292  165.0065 C.ar    1  UNL1        0.1283
     27 N         140.0485  143.4382  166.0543 N.ar    1  UNL1       -0.1619
     28 N         140.4579  142.2779  166.9123 N.ar    1  UNL1       -0.2089
     29 C         141.3948  142.3339  168.0824 C.ar    1  UNL1        0.1222
     30 C         140.8504  142.3282  169.4801 C.ar    1  UNL1        0.1585
     31 F         139.3690  142.2665  169.7077 F       1  UNL1       -0.2026
     32 C         141.7872  142.3842  170.6502 C.ar    1  UNL1        0.0313
     33 C         143.2686  142.4459  170.4227 C.ar    1  UNL1        0.0033
     34 C         143.8130  142.4516  169.0250 C.ar    1  UNL1        0.0131
     35 C         142.8762  142.3956  167.8549 C.ar    1  UNL1        0.0776
     36 CL        143.4207  142.4014  166.4572 Cl      1  UNL1       -0.0806
@<TRIPOS>BOND
     1     2     3    2
     2     3     4   am
     3     4     6    1
     4     6     7   ar
     5     7     8   ar
     6     8     9   ar
     7     9    10    1
     8     9    11   ar
     9    11    12   ar
    10     3     1    1
    11     1    13    1
    12    13    14    1
    13    14    15    1
    14    15    16    1
    15    16    17    1
    16     1    19    1
    17    19    20    1
    18    20    21   ar
    19    21    22   ar
    20    22    23   ar
    21    23    24   ar
    22    24    25   ar
    23    25    26   ar
    24    26    27   ar
    25    27    28   ar
    26    28    29    1
    27    29    30   ar
    28    30    31    1
    29    30    32   ar
    30    32    33   ar
    31    33    34   ar
    32    34    35   ar
    33    35    36    1
    34    12     6   ar
    35    25    20   ar
    36    35    29   ar
    37    28    24   ar
    38     4     5    1
    39    17    18    1
