@<TRIPOS>MOLECULE
*****
 39 43 0 0 0
SMALL
GASTEIGER

@<TRIPOS>ATOM
      1 C         139.8269  142.9303  160.1040 C.3     1  UNL1        0.0080
      2 C         139.6832  141.5279  160.6168 C.3     1  UNL1        0.0177
      3 C         139.8884  141.2375  162.0740 C.3     1  UNL1        0.0721
      4 N         140.2372  142.3494  163.0185 N.3     1  UNL1       -0.2736
      5 C         140.3809  143.7517  162.5057 C.3     1  UNL1        0.0776
      6 C         140.1757  144.0421  161.0484 C.3     1  UNL1        0.0525
      7 C         140.4424  142.0590  164.4757 C.3     1  UNL1        0.0582
      8 C         139.6165  141.4300  165.5584 C.3     1  UNL1        0.0204
      9 C         140.7325  141.6483  166.5366 C.3     1  UNL1        0.0273
     10 C         141.5584  142.2773  165.4539 C.3     1  UNL1        0.0204
     11 C         140.9377  141.3579  167.9939 C.ar    1  UNL1        0.0073
     12 C         141.4833  140.0286  168.4241 C.ar    1  UNL1        0.0276
     13 C         141.6885  139.7381  169.8814 C.ar    1  UNL1        0.1400
     14 F         142.2340  138.4088  170.3116 F       1  UNL1       -0.2042
     15 C         141.3480  140.7770  170.9084 C.ar    1  UNL1        0.0319
     16 C         140.8024  142.1065  170.4781 C.ar    1  UNL1        0.0316
     17 C         140.5973  142.3968  169.0208 C.ar    1  UNL1        0.1363
     18 F         140.0517  143.7262  168.5906 F       1  UNL1       -0.2045
     19 C         140.3194  145.4444  160.5357 C.2     1  UNL1        0.0513
     20 O         141.4738  145.8037  159.6478 O.co2   1  UNL1       -0.5491
     21 O         139.3087  146.4874  160.9108 O.co2   1  UNL1       -0.5491
     22 C         139.6217  143.2206  158.6467 C.3     1  UNL1        0.0033
     23 C         140.6738  142.8347  157.6498 C.3     1  UNL1        0.0340
     24 C         142.1231  142.8768  158.0345 C.3     1  UNL1        0.1364
     25 O         142.9503  144.0855  157.7105 O.3     1  UNL1       -0.3799
     26 H         142.3995  144.7418  157.2558 H       1  UNL1        0.2108
     27 C         144.1719  143.4822  161.9950 C.ar    1  UNL1        0.2250
     28 C         144.7940  142.3156  162.7036 C.ar    1  UNL1        0.0593
     29 C         144.7331  140.9473  162.0921 C.ar    1  UNL1        0.0254
     30 C         144.0502  140.7455  160.7720 C.ar    1  UNL1        0.0991
     31 N         143.9893  139.3772  160.1604 N.ar    1  UNL1       -0.2400
     32 C         143.3064  139.1754  158.8403 C.ar    1  UNL1        0.1282
     33 C         142.6843  140.3420  158.1316 C.ar    1  UNL1        0.1589
     34 F         142.0013  140.1402  156.8114 F       1  UNL1       -0.2027
     35 C         142.7452  141.7103  158.7431 C.ar    1  UNL1        0.0525
     36 C         143.4281  141.9120  160.0633 C.ar    1  UNL1        0.1024
     37 N         143.4890  143.2804  160.6749 N.ar    1  UNL1       -0.2103
     38 C         143.6299  145.0955  163.9579 C.3     1  UNL1        0.2542
     39 O         144.2328  144.8505  162.6065 O.3     1  UNL1       -0.4561
@<TRIPOS>UNITY_ATOM_ATTR
20 1
charge -1
@<TRIPOS>BOND
     1    38    39    1
     2    39    27    1
     3    27    28   ar
     4    28    29   ar
     5    29    30   ar
     6    30    31   ar
     7    31    32   ar
     8    32    33   ar
     9    33    34    1
    10    33    35   ar
    11    35    24    1
    12    24    25    1
    13    24    23    1
    14    23    22    1
    15     1    22    1
    16     1     2    1
    17     2     3    1
    18     3     4    1
    19     4     7    1
    20     7     8    1
    21     8     9    1
    22     9    11    1
    23    11    12   ar
    24    12    13   ar
    25    13    14    1
    26    13    15   ar
    27    15    16   ar
    28    16    17   ar
    29    17    18    1
    30     9    10    1
    31     4     5    1
    32     5     6    1
    33     6    19    1
    34    19    20   ar
    35    19    21   ar
    36    35    36   ar
    37    36    37   ar
    38    37    27   ar
    39    36    30   ar
    40     6     1    1
    41    10     7    1
    42    17    11   ar
    43    25    26    1
@<TRIPOS>MOLECULE
*****
 39 43 0 0 0
SMALL
GASTEIGER

@<TRIPOS>ATOM
      1 C         143.2325  142.5010  161.9306 C.3     1  UNL1        0.0080
      2 C         142.3267  142.6024  160.7392 C.3     1  UNL1        0.0177
      3 C         142.1990  141.4452  159.7935 C.3     1  UNL1        0.0721
      4 N         142.9771  140.1865  160.0391 N.3     1  UNL1       -0.2736
      5 C         143.8829  140.0851  161.2303 C.3     1  UNL1        0.0776
      6 C         144.0106  141.2424  162.1761 C.3     1  UNL1        0.0525
      7 C         142.8494  139.0292  159.0933 C.3     1  UNL1        0.0582
      8 C         142.9188  138.8638  157.6041 C.3     1  UNL1        0.0204
      9 C         142.6688  137.3926  157.7558 C.3     1  UNL1        0.0273
     10 C         142.5994  137.5580  159.2450 C.3     1  UNL1        0.0204
     11 C         142.5411  136.2353  156.8101 C.ar    1  UNL1        0.0073
     12 C         143.6163  135.1909  156.7535 C.ar    1  UNL1        0.0276
     13 C         143.4886  134.0336  155.8077 C.ar    1  UNL1        0.1400
     14 F         144.5637  132.9891  155.7511 F       1  UNL1       -0.2042
     15 C         142.2858  133.9207  154.9186 C.ar    1  UNL1        0.0319
     16 C         141.2106  134.9652  154.9752 C.ar    1  UNL1        0.0316
     17 C         141.3383  136.1225  155.9210 C.ar    1  UNL1        0.1363
     18 F         140.2632  137.1669  155.9776 F       1  UNL1       -0.2045
     19 C         144.9164  141.1410  163.3674 C.2     1  UNL1        0.0513
     20 O         146.3210  141.6613  163.2880 O.co2   1  UNL1       -0.5491
     21 O         144.4177  140.5192  164.6381 O.co2   1  UNL1       -0.5491
     22 C         143.3602  143.6583  162.8763 C.3     1  UNL1        0.0033
     23 C         142.4757  143.7402  164.0850 C.3     1  UNL1        0.0340
     24 C         141.4573  142.6695  164.3431 C.3     1  UNL1        0.1364
     25 O         141.7879  141.5236  165.2528 O.3     1  UNL1       -0.3799
     26 H         142.6925  141.6270  165.5875 H       1  UNL1        0.2108
     27 C         139.8457  139.1226  162.0908 C.ar    1  UNL1        0.2250
     28 C         138.4968  139.1978  161.4392 C.ar    1  UNL1        0.0593
     29 C         137.6850  140.4553  161.5383 C.ar    1  UNL1        0.0254
     30 C         138.2222  141.6376  162.2890 C.ar    1  UNL1        0.0991
     31 N         137.4105  142.8950  162.3881 N.ar    1  UNL1       -0.2400
     32 C         137.9476  144.0773  163.1388 C.ar    1  UNL1        0.1282
     33 C         139.2966  144.0021  163.7905 C.ar    1  UNL1        0.1589
     34 F         139.8338  145.1844  164.5412 F       1  UNL1       -0.2027
     35 C         140.1084  142.7447  163.6914 C.ar    1  UNL1        0.0525
     36 C         139.5711  141.5624  162.9406 C.ar    1  UNL1        0.1024
     37 N         140.3829  140.3049  162.8415 N.ar    1  UNL1       -0.2103
     38 C         141.8121  137.6425  162.9230 C.3     1  UNL1        0.2542
     39 O         140.6575  137.8652  161.9917 O.3     1  UNL1       -0.4561
@<TRIPOS>UNITY_ATOM_ATTR
20 1
charge -1
@<TRIPOS>BOND
     1    38    39    1
     2    39    27    1
     3    27    28   ar
     4    28    29   ar
     5    29    30   ar
     6    30    31   ar
     7    31    32   ar
     8    32    33   ar
     9    33    34    1
    10    33    35   ar
    11    35    24    1
    12    24    25    1
    13    24    23    1
    14    23    22    1
    15     1    22    1
    16     1     2    1
    17     2     3    1
    18     3     4    1
    19     4     7    1
    20     7     8    1
    21     8     9    1
    22     9    11    1
    23    11    12   ar
    24    12    13   ar
    25    13    14    1
    26    13    15   ar
    27    15    16   ar
    28    16    17   ar
    29    17    18    1
    30     9    10    1
    31     4     5    1
    32     5     6    1
    33     6    19    1
    34    19    20   ar
    35    19    21   ar
    36    35    36   ar
    37    36    37   ar
    38    37    27   ar
    39    36    30   ar
    40     6     1    1
    41    10     7    1
    42    17    11   ar
    43    25    26    1
@<TRIPOS>MOLECULE
*****
 39 43 0 0 0
SMALL
GASTEIGER

@<TRIPOS>ATOM
      1 C         139.3024  142.7037  161.5937 C.3     1  UNL1        0.0080
      2 C         139.5846  141.4112  160.8867 C.3     1  UNL1        0.0177
      3 C         140.7686  141.2991  159.9727 C.3     1  UNL1        0.0721
      4 N         141.6706  142.4797  159.7656 N.3     1  UNL1       -0.2736
      5 C         141.3884  143.7722  160.4725 C.3     1  UNL1        0.0776
      6 C         140.2043  143.8843  161.3866 C.3     1  UNL1        0.0525
      7 C         142.8546  142.3676  158.8516 C.3     1  UNL1        0.0582
      8 C         144.0592  141.4765  158.7806 C.3     1  UNL1        0.0204
      9 C         144.5292  142.2092  157.5590 C.3     1  UNL1        0.0273
     10 C         143.3247  143.1003  157.6300 C.3     1  UNL1        0.0204
     11 C         145.7133  142.0972  156.6450 C.ar    1  UNL1        0.0073
     12 C         145.5607  141.4631  155.2943 C.ar    1  UNL1        0.0276
     13 C         146.7448  141.3511  154.3802 C.ar    1  UNL1        0.1400
     14 F         146.5922  140.7170  153.0294 F       1  UNL1       -0.2042
     15 C         148.0814  141.8731  154.8170 C.ar    1  UNL1        0.0319
     16 C         148.2340  142.5072  156.1678 C.ar    1  UNL1        0.0316
     17 C         147.0500  142.6192  157.0818 C.ar    1  UNL1        0.1363
     18 F         147.2026  143.2533  158.4326 F       1  UNL1       -0.2045
     19 C         139.9222  145.1768  162.0934 C.2     1  UNL1        0.0513
     20 O         139.2245  146.2903  161.3702 O.co2   1  UNL1       -0.5491
     21 O         140.3379  145.3558  163.5235 O.co2   1  UNL1       -0.5491
     22 C         138.1183  142.8158  162.5076 C.3     1  UNL1        0.0033
     23 C         138.2594  142.4787  163.9624 C.3     1  UNL1        0.0340
     24 C         139.5819  142.0196  164.5012 C.3     1  UNL1        0.1364
     25 O         140.5109  143.0040  165.1478 O.3     1  UNL1       -0.3799
     26 H         140.1070  143.8858  165.1356 H       1  UNL1        0.2108
     27 C         143.5493  140.8981  162.6978 C.ar    1  UNL1        0.2250
     28 C         143.9429  139.4547  162.5899 C.ar    1  UNL1        0.0593
     29 C         143.0140  138.3851  163.0831 C.ar    1  UNL1        0.0254
     30 C         141.6916  138.7590  163.6842 C.ar    1  UNL1        0.0991
     31 N         140.7627  137.6894  164.1774 N.ar    1  UNL1       -0.2400
     32 C         139.4403  138.0632  164.7785 C.ar    1  UNL1        0.1282
     33 C         139.0466  139.5067  164.8864 C.ar    1  UNL1        0.1589
     34 F         137.7242  139.8805  165.4876 F       1  UNL1       -0.2027
     35 C         139.9755  140.5762  164.3933 C.ar    1  UNL1        0.0525
     36 C         141.2980  140.2023  163.7921 C.ar    1  UNL1        0.1024
     37 N         142.2269  141.2719  163.2989 N.ar    1  UNL1       -0.2103
     38 C         144.2733  143.3922  162.6271 C.3     1  UNL1        0.2542
     39 O         144.4782  141.9676  162.2046 O.3     1  UNL1       -0.4561
@<TRIPOS>UNITY_ATOM_ATTR
20 1
charge -1
@<TRIPOS>BOND
     1    38    39    1
     2    39    27    1
     3    27    28   ar
     4    28    29   ar
     5    29    30   ar
     6    30    31   ar
     7    31    32   ar
     8    32    33   ar
     9    33    34    1
    10    33    35   ar
    11    35    24    1
    12    24    25    1
    13    24    23    1
    14    23    22    1
    15     1    22    1
    16     1     2    1
    17     2     3    1
    18     3     4    1
    19     4     7    1
    20     7     8    1
    21     8     9    1
    22     9    11    1
    23    11    12   ar
    24    12    13   ar
    25    13    14    1
    26    13    15   ar
    27    15    16   ar
    28    16    17   ar
    29    17    18    1
    30     9    10    1
    31     4     5    1
    32     5     6    1
    33     6    19    1
    34    19    20   ar
    35    19    21   ar
    36    35    36   ar
    37    36    37   ar
    38    37    27   ar
    39    36    30   ar
    40     6     1    1
    41    10     7    1
    42    17    11   ar
    43    25    26    1
@<TRIPOS>MOLECULE
*****
 39 43 0 0 0
SMALL
GASTEIGER

@<TRIPOS>ATOM
      1 C         140.8244  140.1387  159.5450 C.3     1  UNL1        0.0080
      2 C         139.6887  140.8175  160.2518 C.3     1  UNL1        0.0177
      3 C         139.6188  140.7979  161.7500 C.3     1  UNL1        0.0721
      4 N         140.6845  140.0996  162.5415 N.3     1  UNL1       -0.2736
      5 C         141.8202  139.4209  161.8348 C.3     1  UNL1        0.0776
      6 C         141.8902  139.4404  160.3365 C.3     1  UNL1        0.0525
      7 C         140.6146  140.0801  164.0397 C.3     1  UNL1        0.0582
      8 C         140.8560  139.0462  165.0994 C.3     1  UNL1        0.0204
      9 C         140.5157  140.0523  166.1586 C.3     1  UNL1        0.0273
     10 C         140.2742  141.0862  165.0989 C.3     1  UNL1        0.0204
     11 C         140.4457  140.0328  167.6568 C.ar    1  UNL1        0.0073
     12 C         139.1163  140.1133  168.3467 C.ar    1  UNL1        0.0276
     13 C         139.0463  140.0938  169.8449 C.ar    1  UNL1        0.1400
     14 F         137.7168  140.1743  170.5348 F       1  UNL1       -0.2042
     15 C         140.3058  139.9936  170.6533 C.ar    1  UNL1        0.0319
     16 C         141.6354  139.9131  169.9634 C.ar    1  UNL1        0.0316
     17 C         141.7053  139.9326  168.4652 C.ar    1  UNL1        0.1363
     18 F         143.0348  139.8521  167.7754 F       1  UNL1       -0.2045
     19 C         143.0259  138.7617  159.6298 C.2     1  UNL1        0.0513
     20 O         143.0186  137.2716  159.4575 O.co2   1  UNL1       -0.5491
     21 O         144.1688  139.5729  159.0954 O.co2   1  UNL1       -0.5491
     22 C         140.8944  140.1583  158.0468 C.3     1  UNL1        0.0033
     23 C         141.3563  141.3944  157.3337 C.3     1  UNL1        0.0340
     24 C         142.3375  142.3181  157.9927 C.3     1  UNL1        0.1364
     25 O         143.7964  142.2266  157.6560 O.3     1  UNL1       -0.3799
     26 H         143.9336  141.5244  157.0010 H       1  UNL1        0.2108
     27 C         144.3665  142.6735  161.9935 C.ar    1  UNL1        0.2250
     28 C         143.8888  143.6886  162.9892 C.ar    1  UNL1        0.0593
     29 C         142.7348  144.5852  162.6512 C.ar    1  UNL1        0.0254
     30 C         142.0584  144.4667  161.3176 C.ar    1  UNL1        0.0991
     31 N         140.9044  145.3634  160.9797 N.ar    1  UNL1       -0.2400
     32 C         140.2280  145.2449  159.6461 C.ar    1  UNL1        0.1282
     33 C         140.7057  144.2298  158.6504 C.ar    1  UNL1        0.1589
     34 F         140.0294  144.1113  157.3168 F       1  UNL1       -0.2027
     35 C         141.8598  143.3331  158.9883 C.ar    1  UNL1        0.0525
     36 C         142.5361  143.4516  160.3220 C.ar    1  UNL1        0.1024
     37 N         143.6902  142.5550  160.6599 N.ar    1  UNL1       -0.2103
     38 C         145.8983  141.5487  163.7650 C.3     1  UNL1        0.2542
     39 O         145.5206  141.7768  162.3315 O.3     1  UNL1       -0.4561
@<TRIPOS>UNITY_ATOM_ATTR
20 1
charge -1
@<TRIPOS>BOND
     1    38    39    1
     2    39    27    1
     3    27    28   ar
     4    28    29   ar
     5    29    30   ar
     6    30    31   ar
     7    31    32   ar
     8    32    33   ar
     9    33    34    1
    10    33    35   ar
    11    35    24    1
    12    24    25    1
    13    24    23    1
    14    23    22    1
    15     1    22    1
    16     1     2    1
    17     2     3    1
    18     3     4    1
    19     4     7    1
    20     7     8    1
    21     8     9    1
    22     9    11    1
    23    11    12   ar
    24    12    13   ar
    25    13    14    1
    26    13    15   ar
    27    15    16   ar
    28    16    17   ar
    29    17    18    1
    30     9    10    1
    31     4     5    1
    32     5     6    1
    33     6    19    1
    34    19    20   ar
    35    19    21   ar
    36    35    36   ar
    37    36    37   ar
    38    37    27   ar
    39    36    30   ar
    40     6     1    1
    41    10     7    1
    42    17    11   ar
    43    25    26    1
@<TRIPOS>MOLECULE
*****
 39 43 0 0 0
SMALL
GASTEIGER

@<TRIPOS>ATOM
      1 C         144.2622  141.4339  163.0910 C.3     1  UNL1        0.0080
      2 C         144.3134  140.8907  161.6937 C.3     1  UNL1        0.0177
      3 C         143.5062  141.5377  160.6075 C.3     1  UNL1        0.0721
      4 N         142.6478  142.7277  160.9185 N.3     1  UNL1       -0.2736
      5 C         142.5965  143.2709  162.3158 C.3     1  UNL1        0.0776
      6 C         143.4038  142.6239  163.4021 C.3     1  UNL1        0.0525
      7 C         141.8405  143.3747  159.8324 C.3     1  UNL1        0.0582
      8 C         140.4030  143.7720  159.6726 C.3     1  UNL1        0.0204
      9 C         140.6989  144.2896  158.2962 C.3     1  UNL1        0.0273
     10 C         142.1364  143.8923  158.4559 C.3     1  UNL1        0.0204
     11 C         139.8916  144.9366  157.2100 C.ar    1  UNL1        0.0073
     12 C         139.9084  146.4279  157.0502 C.ar    1  UNL1        0.0276
     13 C         139.1012  147.0749  155.9639 C.ar    1  UNL1        0.1400
     14 F         139.1179  148.5662  155.8041 F       1  UNL1       -0.2042
     15 C         138.2772  146.2305  155.0376 C.ar    1  UNL1        0.0319
     16 C         138.2604  144.7391  155.1976 C.ar    1  UNL1        0.0316
     17 C         139.0677  144.0922  156.2837 C.ar    1  UNL1        0.1363
     18 F         139.0509  142.6008  156.4436 F       1  UNL1       -0.2045
     19 C         143.3525  143.1671  164.7993 C.2     1  UNL1        0.0513
     20 O         144.4753  144.0176  165.3149 O.co2   1  UNL1       -0.5491
     21 O         142.1785  142.8597  165.6809 O.co2   1  UNL1       -0.5491
     22 C         145.0694  140.7869  164.1772 C.3     1  UNL1        0.0033
     23 C         145.0200  139.2994  164.3636 C.3     1  UNL1        0.0340
     24 C         143.9273  138.6824  165.1855 C.3     1  UNL1        0.1364
     25 O         144.2305  138.1417  166.5514 O.3     1  UNL1       -0.3799
     26 H         145.1718  138.2692  166.7480 H       1  UNL1        0.2108
     27 C         140.4391  139.8806  167.7635 C.ar    1  UNL1        0.2250
     28 C         139.0433  139.8043  167.2195 C.ar    1  UNL1        0.0593
     29 C         138.8103  139.3286  165.8161 C.ar    1  UNL1        0.0254
     30 C         139.9730  138.9292  164.9568 C.ar    1  UNL1        0.0991
     31 N         139.7400  138.4535  163.5534 N.ar    1  UNL1       -0.2400
     32 C         140.9027  138.0542  162.6941 C.ar    1  UNL1        0.1282
     33 C         142.2986  138.1304  163.2381 C.ar    1  UNL1        0.1589
     34 F         143.4613  137.7310  162.3788 F       1  UNL1       -0.2027
     35 C         142.5316  138.6061  164.6415 C.ar    1  UNL1        0.0525
     36 C         141.3688  139.0055  165.5008 C.ar    1  UNL1        0.1024
     37 N         141.6018  139.4812  166.9042 N.ar    1  UNL1       -0.2103
     38 C         141.6276  139.6209  170.0591 C.3     1  UNL1        0.2542
     39 O         140.6721  140.3563  169.1669 O.3     1  UNL1       -0.4561
@<TRIPOS>UNITY_ATOM_ATTR
20 1
charge -1
@<TRIPOS>BOND
     1    38    39    1
     2    39    27    1
     3    27    28   ar
     4    28    29   ar
     5    29    30   ar
     6    30    31   ar
     7    31    32   ar
     8    32    33   ar
     9    33    34    1
    10    33    35   ar
    11    35    24    1
    12    24    25    1
    13    24    23    1
    14    23    22    1
    15     1    22    1
    16     1     2    1
    17     2     3    1
    18     3     4    1
    19     4     7    1
    20     7     8    1
    21     8     9    1
    22     9    11    1
    23    11    12   ar
    24    12    13   ar
    25    13    14    1
    26    13    15   ar
    27    15    16   ar
    28    16    17   ar
    29    17    18    1
    30     9    10    1
    31     4     5    1
    32     5     6    1
    33     6    19    1
    34    19    20   ar
    35    19    21   ar
    36    35    36   ar
    37    36    37   ar
    38    37    27   ar
    39    36    30   ar
    40     6     1    1
    41    10     7    1
    42    17    11   ar
    43    25    26    1
@<TRIPOS>MOLECULE
*****
 39 43 0 0 0
SMALL
GASTEIGER

@<TRIPOS>ATOM
      1 C         139.3753  142.8724  160.3043 C.3     1  UNL1        0.0080
      2 C         138.2552  142.4591  161.2124 C.3     1  UNL1        0.0177
      3 C         138.5282  142.1786  162.6604 C.3     1  UNL1        0.0721
      4 N         139.9213  142.3114  163.2003 N.3     1  UNL1       -0.2736
      5 C         141.0414  142.7247  162.2923 C.3     1  UNL1        0.0776
      6 C         140.7684  143.0052  160.8442 C.3     1  UNL1        0.0525
      7 C         140.1943  142.0310  164.6483 C.3     1  UNL1        0.0582
      8 C         141.3668  142.2250  165.5636 C.3     1  UNL1        0.0204
      9 C         140.5805  141.6343  166.6962 C.3     1  UNL1        0.0273
     10 C         139.4080  141.4403  165.7810 C.3     1  UNL1        0.0204
     11 C         140.8536  141.3538  168.1442 C.ar    1  UNL1        0.0073
     12 C         141.3786  140.0124  168.5622 C.ar    1  UNL1        0.0276
     13 C         141.6517  139.7318  170.0103 C.ar    1  UNL1        0.1400
     14 F         142.1768  138.3904  170.4283 F       1  UNL1       -0.2042
     15 C         141.3996  140.7928  171.0403 C.ar    1  UNL1        0.0319
     16 C         140.8745  142.1343  170.6222 C.ar    1  UNL1        0.0316
     17 C         140.6015  142.4148  169.1742 C.ar    1  UNL1        0.1363
     18 F         140.0764  143.7562  168.7562 F       1  UNL1       -0.2045
     19 C         141.8885  143.4185  159.9362 C.2     1  UNL1        0.0513
     20 O         142.8213  142.3851  159.3777 O.co2   1  UNL1       -0.5491
     21 O         142.0758  144.8652  159.5867 O.co2   1  UNL1       -0.5491
     22 C         139.1022  143.1529  158.8563 C.3     1  UNL1        0.0033
     23 C         139.3142  142.0785  157.8313 C.3     1  UNL1        0.0340
     24 C         139.3068  140.6363  158.2439 C.3     1  UNL1        0.1364
     25 O         138.0048  139.9334  158.4902 O.3     1  UNL1       -0.3799
     26 H         137.2710  140.5496  158.3394 H       1  UNL1        0.2108
     27 C         140.2763  138.6508  162.1641 C.ar    1  UNL1        0.2250
     28 C         141.5708  137.9117  162.3305 C.ar    1  UNL1        0.0593
     29 C         142.5423  137.8344  161.1902 C.ar    1  UNL1        0.0254
     30 C         142.2191  138.4962  159.8835 C.ar    1  UNL1        0.0991
     31 N         143.1905  138.4188  158.7431 N.ar    1  UNL1       -0.2400
     32 C         142.8674  139.0806  157.4364 C.ar    1  UNL1        0.1282
     33 C         141.5728  139.8198  157.2700 C.ar    1  UNL1        0.1589
     34 F         141.2496  140.4816  155.9633 F       1  UNL1       -0.2027
     35 C         140.6013  139.8972  158.4103 C.ar    1  UNL1        0.0525
     36 C         140.9245  139.2353  159.7171 C.ar    1  UNL1        0.1024
     37 N         139.9531  139.3126  160.8574 N.ar    1  UNL1       -0.2103
     38 C         139.5036  137.8700  164.5185 C.3     1  UNL1        0.2542
     39 O         139.3048  138.7281  163.3045 O.3     1  UNL1       -0.4561
@<TRIPOS>UNITY_ATOM_ATTR
20 1
charge -1
@<TRIPOS>BOND
     1    38    39    1
     2    39    27    1
     3    27    28   ar
     4    28    29   ar
     5    29    30   ar
     6    30    31   ar
     7    31    32   ar
     8    32    33   ar
     9    33    34    1
    10    33    35   ar
    11    35    24    1
    12    24    25    1
    13    24    23    1
    14    23    22    1
    15     1    22    1
    16     1     2    1
    17     2     3    1
    18     3     4    1
    19     4     7    1
    20     7     8    1
    21     8     9    1
    22     9    11    1
    23    11    12   ar
    24    12    13   ar
    25    13    14    1
    26    13    15   ar
    27    15    16   ar
    28    16    17   ar
    29    17    18    1
    30     9    10    1
    31     4     5    1
    32     5     6    1
    33     6    19    1
    34    19    20   ar
    35    19    21   ar
    36    35    36   ar
    37    36    37   ar
    38    37    27   ar
    39    36    30   ar
    40     6     1    1
    41    10     7    1
    42    17    11   ar
    43    25    26    1
@<TRIPOS>MOLECULE
*****
 39 43 0 0 0
SMALL
GASTEIGER

@<TRIPOS>ATOM
      1 C         140.3707  138.7689  159.2929 C.3     1  UNL1        0.0080
      2 C         139.2815  138.2265  160.1702 C.3     1  UNL1        0.0177
      3 C         139.3535  138.4122  161.6568 C.3     1  UNL1        0.0721
      4 N         140.5147  139.1403  162.2664 N.3     1  UNL1       -0.2736
      5 C         141.6039  139.6827  161.3892 C.3     1  UNL1        0.0776
      6 C         141.5319  139.4970  159.9024 C.3     1  UNL1        0.0525
      7 C         140.5867  139.3260  163.7531 C.3     1  UNL1        0.0582
      8 C         140.0751  138.5688  164.9426 C.3     1  UNL1        0.0204
      9 C         140.6885  139.5886  165.8557 C.3     1  UNL1        0.0273
     10 C         141.2001  140.3458  164.6662 C.3     1  UNL1        0.0204
     11 C         140.7605  139.7743  167.3424 C.ar    1  UNL1        0.0073
     12 C         139.5506  140.2345  168.1001 C.ar    1  UNL1        0.0276
     13 C         139.6225  140.4202  169.5869 C.ar    1  UNL1        0.1400
     14 F         138.4126  140.8803  170.3447 F       1  UNL1       -0.2042
     15 C         140.9045  140.1458  170.3158 C.ar    1  UNL1        0.0319
     16 C         142.1145  139.6856  169.5580 C.ar    1  UNL1        0.0316
     17 C         142.0425  139.4999  168.0713 C.ar    1  UNL1        0.1363
     18 F         143.2524  139.0398  167.3135 F       1  UNL1       -0.2045
     19 C         142.6211  140.0394  159.0253 C.2     1  UNL1        0.0513
     20 O         143.6998  139.1284  158.5190 O.co2   1  UNL1       -0.5491
     21 O         142.6315  141.4928  158.6544 O.co2   1  UNL1       -0.5491
     22 C         140.2987  138.5832  157.8062 C.3     1  UNL1        0.0033
     23 C         139.5574  139.5765  156.9614 C.3     1  UNL1        0.0340
     24 C         138.7213  140.6385  157.6120 C.3     1  UNL1        0.1364
     25 O         137.2882  140.3591  157.9555 O.3     1  UNL1       -0.3799
     26 H         137.0634  139.4529  157.6925 H       1  UNL1        0.2108
     27 C         138.5423  142.2757  161.7998 C.ar    1  UNL1        0.2250
     28 C         139.1393  143.6170  162.1068 C.ar    1  UNL1        0.0593
     29 C         139.7961  144.4126  161.0179 C.ar    1  UNL1        0.0254
     30 C         139.8558  143.8669  159.6220 C.ar    1  UNL1        0.0991
     31 N         140.5125  144.6625  158.5331 N.ar    1  UNL1       -0.2400
     32 C         140.5722  144.1168  157.1372 C.ar    1  UNL1        0.1282
     33 C         139.9751  142.7754  156.8301 C.ar    1  UNL1        0.1589
     34 F         140.0348  142.2297  155.4342 F       1  UNL1       -0.2027
     35 C         139.3184  141.9798  157.9190 C.ar    1  UNL1        0.0525
     36 C         139.2587  142.5256  159.3150 C.ar    1  UNL1        0.1024
     37 N         138.6020  141.7300  160.4039 N.ar    1  UNL1       -0.2103
     38 C         137.9308  141.9686  164.3061 C.3     1  UNL1        0.2542
     39 O         137.8855  141.4801  162.8887 O.3     1  UNL1       -0.4561
@<TRIPOS>UNITY_ATOM_ATTR
20 1
charge -1
@<TRIPOS>BOND
     1    38    39    1
     2    39    27    1
     3    27    28   ar
     4    28    29   ar
     5    29    30   ar
     6    30    31   ar
     7    31    32   ar
     8    32    33   ar
     9    33    34    1
    10    33    35   ar
    11    35    24    1
    12    24    25    1
    13    24    23    1
    14    23    22    1
    15     1    22    1
    16     1     2    1
    17     2     3    1
    18     3     4    1
    19     4     7    1
    20     7     8    1
    21     8     9    1
    22     9    11    1
    23    11    12   ar
    24    12    13   ar
    25    13    14    1
    26    13    15   ar
    27    15    16   ar
    28    16    17   ar
    29    17    18    1
    30     9    10    1
    31     4     5    1
    32     5     6    1
    33     6    19    1
    34    19    20   ar
    35    19    21   ar
    36    35    36   ar
    37    36    37   ar
    38    37    27   ar
    39    36    30   ar
    40     6     1    1
    41    10     7    1
    42    17    11   ar
    43    25    26    1
@<TRIPOS>MOLECULE
*****
 39 43 0 0 0
SMALL
GASTEIGER

@<TRIPOS>ATOM
      1 C         138.9247  143.0468  162.7198 C.3     1  UNL1        0.0080
      2 C         138.4326  141.6338  162.8264 C.3     1  UNL1        0.0177
      3 C         138.8356  140.6196  161.7975 C.3     1  UNL1        0.0721
      4 N         139.7307  141.0183  160.6617 N.3     1  UNL1       -0.2736
      5 C         140.2228  142.4312  160.5550 C.3     1  UNL1        0.0776
      6 C         139.8198  143.4455  161.5840 C.3     1  UNL1        0.0525
      7 C         140.1337  140.0040  159.6328 C.3     1  UNL1        0.0582
      8 C         140.8075  140.0615  158.2938 C.3     1  UNL1        0.0204
      9 C         140.7037  138.5696  158.1774 C.3     1  UNL1        0.0273
     10 C         140.0299  138.5121  159.5164 C.3     1  UNL1        0.0204
     11 C         141.1067  137.5554  157.1485 C.ar    1  UNL1        0.0073
     12 C         142.4639  136.9201  157.2130 C.ar    1  UNL1        0.0276
     13 C         142.8670  135.9058  156.1840 C.ar    1  UNL1        0.1400
     14 F         144.2242  135.2704  156.2486 F       1  UNL1       -0.2042
     15 C         141.9128  135.5268  155.0904 C.ar    1  UNL1        0.0319
     16 C         140.5555  136.1622  155.0259 C.ar    1  UNL1        0.0316
     17 C         140.1525  137.1765  156.0549 C.ar    1  UNL1        0.1363
     18 F         138.7952  137.8118  155.9903 F       1  UNL1       -0.2045
     19 C         140.3119  144.8584  161.4773 C.2     1  UNL1        0.0513
     20 O         141.7323  145.1866  161.8304 O.co2   1  UNL1       -0.5491
     21 O         139.3836  145.9432  161.0175 O.co2   1  UNL1       -0.5491
     22 C         138.5217  144.0611  163.7487 C.3     1  UNL1        0.0033
     23 C         139.2683  144.1501  165.0466 C.3     1  UNL1        0.0340
     24 C         140.6522  143.5817  165.1563 C.3     1  UNL1        0.1364
     25 O         141.7941  144.2453  164.4452 O.3     1  UNL1       -0.3799
     26 H         141.4680  145.0221  163.9644 H       1  UNL1        0.2108
     27 C         142.4056  139.9082  163.2377 C.ar    1  UNL1        0.2250
     28 C         142.6474  138.6763  164.0585 C.ar    1  UNL1        0.0593
     29 C         142.3048  138.6688  165.5188 C.ar    1  UNL1        0.0254
     30 C         141.7204  139.8932  166.1583 C.ar    1  UNL1        0.0991
     31 N         141.3778  139.8857  167.6187 N.ar    1  UNL1       -0.2400
     32 C         140.7933  141.1102  168.2582 C.ar    1  UNL1        0.1282
     33 C         140.5514  142.3422  167.4374 C.ar    1  UNL1        0.1589
     34 F         139.9670  143.5667  168.0770 F       1  UNL1       -0.2027
     35 C         140.8940  142.3497  165.9771 C.ar    1  UNL1        0.0525
     36 C         141.4785  141.1252  165.3376 C.ar    1  UNL1        0.1024
     37 N         141.8211  141.1327  163.8772 N.ar    1  UNL1       -0.2103
     38 C         143.8058  138.9918  161.2503 C.3     1  UNL1        0.2542
     39 O         142.7482  139.9157  161.7774 O.3     1  UNL1       -0.4561
@<TRIPOS>UNITY_ATOM_ATTR
20 1
charge -1
@<TRIPOS>BOND
     1    38    39    1
     2    39    27    1
     3    27    28   ar
     4    28    29   ar
     5    29    30   ar
     6    30    31   ar
     7    31    32   ar
     8    32    33   ar
     9    33    34    1
    10    33    35   ar
    11    35    24    1
    12    24    25    1
    13    24    23    1
    14    23    22    1
    15     1    22    1
    16     1     2    1
    17     2     3    1
    18     3     4    1
    19     4     7    1
    20     7     8    1
    21     8     9    1
    22     9    11    1
    23    11    12   ar
    24    12    13   ar
    25    13    14    1
    26    13    15   ar
    27    15    16   ar
    28    16    17   ar
    29    17    18    1
    30     9    10    1
    31     4     5    1
    32     5     6    1
    33     6    19    1
    34    19    20   ar
    35    19    21   ar
    36    35    36   ar
    37    36    37   ar
    38    37    27   ar
    39    36    30   ar
    40     6     1    1
    41    10     7    1
    42    17    11   ar
    43    25    26    1
@<TRIPOS>MOLECULE
*****
 39 43 0 0 0
SMALL
GASTEIGER

@<TRIPOS>ATOM
      1 C         142.8206  139.9430  160.0873 C.3     1  UNL1        0.0080
      2 C         144.0403  139.9911  160.9592 C.3     1  UNL1        0.0177
      3 C         143.8961  140.1726  162.4412 C.3     1  UNL1        0.0721
      4 N         142.5322  140.3059  163.0513 N.3     1  UNL1       -0.2736
      5 C         141.3126  140.2578  162.1794 C.3     1  UNL1        0.0776
      6 C         141.4568  140.0763  160.6974 C.3     1  UNL1        0.0525
      7 C         142.3880  140.4874  164.5332 C.3     1  UNL1        0.0582
      8 C         143.1063  139.9627  165.7409 C.3     1  UNL1        0.0204
      9 C         142.1841  140.7441  166.6291 C.3     1  UNL1        0.0273
     10 C         141.4658  141.2689  165.4214 C.3     1  UNL1        0.0204
     11 C         142.0399  140.9256  168.1111 C.ar    1  UNL1        0.0073
     12 C         141.0539  140.0934  168.8761 C.ar    1  UNL1        0.0276
     13 C         140.9096  140.2749  170.3581 C.ar    1  UNL1        0.1400
     14 F         139.9236  139.4427  171.1232 F       1  UNL1       -0.2042
     15 C         141.7514  141.2885  171.0751 C.ar    1  UNL1        0.0319
     16 C         142.7374  142.1207  170.3099 C.ar    1  UNL1        0.0316
     17 C         142.8816  141.9392  168.8280 C.ar    1  UNL1        0.1363
     18 F         143.8676  142.7714  168.0630 F       1  UNL1       -0.2045
     19 C         140.2372  140.0282  159.8255 C.2     1  UNL1        0.0513
     20 O         139.9477  138.8045  159.0079 O.co2   1  UNL1       -0.5491
     21 O         139.3072  141.2038  159.7713 O.co2   1  UNL1       -0.5491
     22 C         142.9649  139.7615  158.6053 C.3     1  UNL1        0.0033
     23 C         143.0757  140.9600  157.7103 C.3     1  UNL1        0.0340
     24 C         143.3540  142.3118  158.2979 C.3     1  UNL1        0.1364
     25 O         144.7684  142.7895  158.4436 O.3     1  UNL1       -0.3799
     26 H         145.3752  142.1091  158.1126 H       1  UNL1        0.2108
     27 C         143.3211  144.0270  162.4581 C.ar    1  UNL1        0.2250
     28 C         142.1850  144.9010  162.9000 C.ar    1  UNL1        0.0593
     29 C         141.0598  145.2032  161.9552 C.ar    1  UNL1        0.0254
     30 C         141.0707  144.6315  160.5685 C.ar    1  UNL1        0.0991
     31 N         139.9456  144.9338  159.6238 N.ar    1  UNL1       -0.2400
     32 C         139.9565  144.3621  158.2371 C.ar    1  UNL1        0.1282
     33 C         141.0927  143.4881  157.7951 C.ar    1  UNL1        0.1589
     34 F         141.1036  142.9164  156.4084 F       1  UNL1       -0.2027
     35 C         142.2179  143.1858  158.7399 C.ar    1  UNL1        0.0525
     36 C         142.2069  143.7575  160.1266 C.ar    1  UNL1        0.1024
     37 N         143.3320  143.4553  161.0714 N.ar    1  UNL1       -0.2103
     38 C         144.2016  143.7176  164.8828 C.3     1  UNL1        0.2542
     39 O         144.4463  143.7247  163.4029 O.3     1  UNL1       -0.4561
@<TRIPOS>UNITY_ATOM_ATTR
20 1
charge -1
@<TRIPOS>BOND
     1    38    39    1
     2    39    27    1
     3    27    28   ar
     4    28    29   ar
     5    29    30   ar
     6    30    31   ar
     7    31    32   ar
     8    32    33   ar
     9    33    34    1
    10    33    35   ar
    11    35    24    1
    12    24    25    1
    13    24    23    1
    14    23    22    1
    15     1    22    1
    16     1     2    1
    17     2     3    1
    18     3     4    1
    19     4     7    1
    20     7     8    1
    21     8     9    1
    22     9    11    1
    23    11    12   ar
    24    12    13   ar
    25    13    14    1
    26    13    15   ar
    27    15    16   ar
    28    16    17   ar
    29    17    18    1
    30     9    10    1
    31     4     5    1
    32     5     6    1
    33     6    19    1
    34    19    20   ar
    35    19    21   ar
    36    35    36   ar
    37    36    37   ar
    38    37    27   ar
    39    36    30   ar
    40     6     1    1
    41    10     7    1
    42    17    11   ar
    43    25    26    1
