@<TRIPOS>MOLECULE
*****
 34 35 0 0 0
SMALL
GASTEIGER

@<TRIPOS>ATOM
      1 C         138.0204  140.6200  164.0050 C.ar    1  UNL1        0.0730
      2 C         137.8105  142.1051  163.9846 C.ar    1  UNL1        0.0322
      3 C         137.8047  142.8439  162.6791 C.ar    1  UNL1        0.0654
      4 C         138.0088  142.0975  161.3940 C.ar    1  UNL1        0.1133
      5 N         138.2186  140.6124  161.4144 N.ar    1  UNL1       -0.2367
      6 C         138.2244  139.8737  162.7199 C.ar    1  UNL1        0.1476
      7 C         138.4343  138.3886  162.7402 C.2     1  UNL1        0.2617
      8 N         137.6910  137.5128  161.7757 N.am    1  UNL1       -0.3240
      9 O         139.3875  137.7793  163.7253 O.2     1  UNL1       -0.2687
     10 H         137.0654  137.9127  161.1292 H       1  UNL1        0.1453
     11 H         137.8288  136.5380  161.7891 H       1  UNL1        0.1453
     12 N         138.0262  139.8812  165.3104 N.pl3   1  UNL1       -0.2966
     13 H         137.2419  139.3503  165.5790 H       1  UNL1        0.1537
     14 C         140.0762  140.0567  170.0818 C.3     1  UNL1        0.0312
     15 C         140.2520  140.0392  168.5923 C.ar    1  UNL1       -0.0179
     16 C         141.6286  140.0918  167.9989 C.ar    1  UNL1        0.0106
     17 C         141.8045  140.0743  166.5093 C.ar    1  UNL1        0.0605
     18 C         143.1812  140.1270  165.9160 C.3     1  UNL1        0.0521
     19 N         140.6037  140.0041  165.6132 N.ar    1  UNL1       -0.2349
     20 C         139.2271  139.9514  166.2066 C.ar    1  UNL1        0.1315
     21 C         139.0513  139.9690  167.6961 C.ar    1  UNL1        0.0301
     22 N         137.5949  144.3290  162.6587 N.pl3   1  UNL1       -0.3303
     23 H         136.6900  144.6999  162.7722 H       1  UNL1        0.1469
     24 C         138.7637  145.2490  162.4653 C.3     1  UNL1        0.1028
     25 C         139.9786  145.1110  163.3341 C.3     1  UNL1        0.0723
     26 N         139.8266  144.9810  164.8208 N.3     1  UNL1       -0.3208
     27 H         138.8366  145.0056  165.0648 H       1  UNL1        0.1189
     28 H         140.3095  145.7528  165.2807 H       1  UNL1        0.1189
     29 C         141.3455  145.1029  162.7164 C.3     1  UNL1        0.0425
     30 C         142.5624  145.2133  163.5865 C.3     1  UNL1        0.1523
     31 S         143.5308  144.0708  163.6700 S.O2    1  UNL1       -0.0082
     32 C         144.4992  142.9283  163.7535 C.3     1  UNL1        0.1760
     33 O         144.3336  144.6695  162.5533 O.2     1  UNL1       -0.1729
     34 O         142.7281  143.4720  164.7867 O.2     1  UNL1       -0.1729
@<TRIPOS>BOND
     1    14    15    1
     2    15    16   ar
     3    16    17   ar
     4    17    18    1
     5    17    19   ar
     6    19    20   ar
     7    20    12    1
     8    12     1    1
     9     1     2   ar
    10     2     3   ar
    11     3    22    1
    12    22    24    1
    13    24    25    1
    14    25    26    1
    15    25    29    1
    16    29    30    1
    17    30    31    1
    18    31    32    1
    19    31    33    2
    20    31    34    2
    21     3     4   ar
    22     4     5   ar
    23     5     6   ar
    24     6     7    1
    25     7     8   am
    26     7     9    2
    27    20    21   ar
    28    21    15   ar
    29     6     1   ar
    30    12    13    1
    31    22    23    1
    32    26    27    1
    33    26    28    1
    34     8    10    1
    35     8    11    1
@<TRIPOS>MOLECULE
*****
 34 35 0 0 0
SMALL
GASTEIGER

@<TRIPOS>ATOM
      1 C         142.1960  141.0980  162.8911 C.ar    1  UNL1        0.0730
      2 C         141.7586  142.4887  162.5381 C.ar    1  UNL1        0.0322
      3 C         142.7668  143.4960  162.0702 C.ar    1  UNL1        0.0654
      4 C         144.2124  143.1125  161.9552 C.ar    1  UNL1        0.1133
      5 N         144.6498  141.7218  162.3081 N.ar    1  UNL1       -0.2367
      6 C         143.6416  140.7145  162.7761 C.ar    1  UNL1        0.1476
      7 C         144.0791  139.3238  163.1291 C.2     1  UNL1        0.2617
      8 N         144.5368  138.3855  162.0521 N.am    1  UNL1       -0.3240
      9 O         144.0587  138.8715  164.5591 O.2     1  UNL1       -0.2687
     10 H         144.5502  138.6824  161.1135 H       1  UNL1        0.1453
     11 H         144.8239  137.4727  162.2838 H       1  UNL1        0.1453
     12 N         141.1878  140.0907  163.3591 N.pl3   1  UNL1       -0.2966
     13 H         140.8688  139.3913  162.7440 H       1  UNL1        0.1537
     14 C         137.7543  138.5704  166.9506 C.3     1  UNL1        0.0312
     15 C         138.9490  139.3889  166.5599 C.ar    1  UNL1       -0.0179
     16 C         139.6217  140.2657  167.5741 C.ar    1  UNL1        0.0106
     17 C         140.8164  141.0842  167.1833 C.ar    1  UNL1        0.0605
     18 C         141.4891  141.9611  168.1976 C.3     1  UNL1        0.0521
     19 N         141.3385  141.0259  165.7783 N.ar    1  UNL1       -0.2349
     20 C         140.6658  140.1491  164.7641 C.ar    1  UNL1        0.1315
     21 C         139.4711  139.3306  165.1549 C.ar    1  UNL1        0.0301
     22 N         142.3294  144.8867  161.7172 N.pl3   1  UNL1       -0.3303
     23 H         142.8886  145.6571  161.9679 H       1  UNL1        0.1469
     24 C         141.0399  145.1035  160.9821 C.3     1  UNL1        0.1028
     25 C         139.8602  145.6945  161.6955 C.3     1  UNL1        0.0723
     26 N         139.1665  146.8976  161.1286 N.3     1  UNL1       -0.3208
     27 H         139.6258  147.1781  160.2621 H       1  UNL1        0.1189
     28 H         139.2110  147.6638  161.8004 H       1  UNL1        0.1189
     29 C         139.3741  145.0825  162.9758 C.3     1  UNL1        0.0425
     30 C         138.0105  144.4608  163.0396 C.3     1  UNL1        0.1523
     31 S         137.8569  142.9746  162.9065 S.O2    1  UNL1       -0.0082
     32 C         137.7032  141.4884  162.7735 C.3     1  UNL1        0.1760
     33 O         137.6717  143.1263  161.4258 O.2     1  UNL1       -0.1729
     34 O         138.0420  142.8228  164.3873 O.2     1  UNL1       -0.1729
@<TRIPOS>BOND
     1    14    15    1
     2    15    16   ar
     3    16    17   ar
     4    17    18    1
     5    17    19   ar
     6    19    20   ar
     7    20    12    1
     8    12     1    1
     9     1     2   ar
    10     2     3   ar
    11     3    22    1
    12    22    24    1
    13    24    25    1
    14    25    26    1
    15    25    29    1
    16    29    30    1
    17    30    31    1
    18    31    32    1
    19    31    33    2
    20    31    34    2
    21     3     4   ar
    22     4     5   ar
    23     5     6   ar
    24     6     7    1
    25     7     8   am
    26     7     9    2
    27    20    21   ar
    28    21    15   ar
    29     6     1   ar
    30    12    13    1
    31    22    23    1
    32    26    27    1
    33    26    28    1
    34     8    10    1
    35     8    11    1
@<TRIPOS>MOLECULE
*****
 34 35 0 0 0
SMALL
GASTEIGER

@<TRIPOS>ATOM
      1 C         143.2799  141.7127  164.0238 C.ar    1  UNL1        0.0730
      2 C         142.7620  143.0886  163.7259 C.ar    1  UNL1        0.0322
      3 C         142.9335  143.6741  162.3555 C.ar    1  UNL1        0.0654
      4 C         143.6229  142.8837  161.2831 C.ar    1  UNL1        0.1133
      5 N         144.1408  141.5078  161.5811 N.ar    1  UNL1       -0.2367
      6 C         143.9693  140.9223  162.9514 C.ar    1  UNL1        0.1476
      7 C         144.4873  139.5465  163.2493 C.2     1  UNL1        0.2617
      8 N         144.3673  138.4610  162.2211 N.am    1  UNL1       -0.3240
      9 O         145.1252  139.2561  164.5755 O.2     1  UNL1       -0.2687
     10 H         143.9486  138.6516  161.3507 H       1  UNL1        0.1453
     11 H         144.7072  137.5580  162.4166 H       1  UNL1        0.1453
     12 N         143.1084  141.1272  165.3941 N.pl3   1  UNL1       -0.2966
     13 H         143.8579  141.1404  166.0323 H       1  UNL1        0.1537
     14 C         139.4167  140.3327  168.9635 C.3     1  UNL1        0.0312
     15 C         139.9492  140.1244  167.5767 C.ar    1  UNL1       -0.0179
     16 C         139.1683  139.3106  166.5879 C.ar    1  UNL1        0.0106
     17 C         139.7008  139.1023  165.2011 C.ar    1  UNL1        0.0605
     18 C         138.9198  138.2884  164.2123 C.3     1  UNL1        0.0521
     19 N         141.0141  139.7078  164.8032 N.ar    1  UNL1       -0.2349
     20 C         141.7950  140.5216  165.7920 C.ar    1  UNL1        0.1315
     21 C         141.2626  140.7299  167.1788 C.ar    1  UNL1        0.0301
     22 N         142.4156  145.0499  162.0576 N.pl3   1  UNL1       -0.3303
     23 H         142.8706  145.8389  162.4315 H       1  UNL1        0.1469
     24 C         141.2043  145.2238  161.1900 C.3     1  UNL1        0.1028
     25 C         139.9081  145.6769  161.7937 C.3     1  UNL1        0.0723
     26 N         139.1451  146.8078  161.1701 N.3     1  UNL1       -0.3208
     27 H         139.6493  147.1474  160.3511 H       1  UNL1        0.1189
     28 H         139.0461  147.5649  161.8465 H       1  UNL1        0.1189
     29 C         139.3749  144.9990  163.0210 C.3     1  UNL1        0.0425
     30 C         137.9710  144.4708  163.0359 C.3     1  UNL1        0.1523
     31 S         137.7261  142.9911  163.0059 S.O2    1  UNL1       -0.0082
     32 C         137.4812  141.5116  162.9758 C.3     1  UNL1        0.1760
     33 O         137.6668  143.0314  161.5076 O.2     1  UNL1       -0.1729
     34 O         137.7854  142.9509  164.5041 O.2     1  UNL1       -0.1729
@<TRIPOS>BOND
     1    14    15    1
     2    15    16   ar
     3    16    17   ar
     4    17    18    1
     5    17    19   ar
     6    19    20   ar
     7    20    12    1
     8    12     1    1
     9     1     2   ar
    10     2     3   ar
    11     3    22    1
    12    22    24    1
    13    24    25    1
    14    25    26    1
    15    25    29    1
    16    29    30    1
    17    30    31    1
    18    31    32    1
    19    31    33    2
    20    31    34    2
    21     3     4   ar
    22     4     5   ar
    23     5     6   ar
    24     6     7    1
    25     7     8   am
    26     7     9    2
    27    20    21   ar
    28    21    15   ar
    29     6     1   ar
    30    12    13    1
    31    22    23    1
    32    26    27    1
    33    26    28    1
    34     8    10    1
    35     8    11    1
@<TRIPOS>MOLECULE
*****
 34 35 0 0 0
SMALL
GASTEIGER

@<TRIPOS>ATOM
      1 C         140.3125  140.4284  167.3542 C.ar    1  UNL1        0.0730
      2 C         139.9587  139.9944  165.9626 C.ar    1  UNL1        0.0322
      3 C         138.7398  139.1526  165.7267 C.ar    1  UNL1        0.0654
      4 C         137.8747  138.7449  166.8822 C.ar    1  UNL1        0.1133
      5 N         138.2285  139.1790  168.2738 N.ar    1  UNL1       -0.2367
      6 C         139.4474  140.0207  168.5098 C.ar    1  UNL1        0.1476
      7 C         139.8012  140.4547  169.9013 C.2     1  UNL1        0.2617
      8 N         139.7319  139.4732  171.0335 N.am    1  UNL1       -0.3240
      9 O         140.2243  141.8703  170.1607 O.2     1  UNL1       -0.2687
     10 H         139.4541  138.5442  170.8633 H       1  UNL1        0.1453
     11 H         139.9641  139.7581  171.9468 H       1  UNL1        0.1453
     12 N         141.5314  141.2701  167.5902 N.pl3   1  UNL1       -0.2966
     13 H         141.6915  141.6669  168.4769 H       1  UNL1        0.1537
     14 C         143.8907  144.5170  164.2899 C.3     1  UNL1        0.0312
     15 C         143.6861  143.1308  164.8251 C.ar    1  UNL1       -0.0179
     16 C         144.4566  141.9818  164.2455 C.ar    1  UNL1        0.0106
     17 C         144.2520  140.5955  164.7807 C.ar    1  UNL1        0.0605
     18 C         145.0225  139.4464  164.2010 C.3     1  UNL1        0.0521
     19 N         143.2770  140.3583  165.8956 N.ar    1  UNL1       -0.2349
     20 C         142.5065  141.5073  166.4752 C.ar    1  UNL1        0.1315
     21 C         142.7111  142.8936  165.9400 C.ar    1  UNL1        0.0301
     22 N         138.3860  138.7186  164.3351 N.pl3   1  UNL1       -0.3303
     23 H         137.8116  137.9312  164.1961 H       1  UNL1        0.1469
     24 C         138.9072  139.4844  163.1553 C.3     1  UNL1        0.1028
     25 C         137.9505  140.1527  162.2129 C.3     1  UNL1        0.0723
     26 N         137.1311  139.3273  161.2655 N.3     1  UNL1       -0.3208
     27 H         137.3504  138.3400  161.3978 H       1  UNL1        0.1189
     28 H         137.3460  139.5976  160.3058 H       1  UNL1        0.1189
     29 C         137.8132  141.6464  162.2178 C.3     1  UNL1        0.0425
     30 C         138.4930  142.4586  163.2799 C.3     1  UNL1        0.1523
     31 S         138.9924  143.8376  162.9650 S.O2    1  UNL1       -0.0082
     32 C         139.4918  145.2164  162.6500 C.3     1  UNL1        0.1760
     33 O         140.3899  143.4081  163.3004 O.2     1  UNL1       -0.1729
     34 O         137.5949  144.2670  162.6295 O.2     1  UNL1       -0.1729
@<TRIPOS>BOND
     1    14    15    1
     2    15    16   ar
     3    16    17   ar
     4    17    18    1
     5    17    19   ar
     6    19    20   ar
     7    20    12    1
     8    12     1    1
     9     1     2   ar
    10     2     3   ar
    11     3    22    1
    12    22    24    1
    13    24    25    1
    14    25    26    1
    15    25    29    1
    16    29    30    1
    17    30    31    1
    18    31    32    1
    19    31    33    2
    20    31    34    2
    21     3     4   ar
    22     4     5   ar
    23     5     6   ar
    24     6     7    1
    25     7     8   am
    26     7     9    2
    27    20    21   ar
    28    21    15   ar
    29     6     1   ar
    30    12    13    1
    31    22    23    1
    32    26    27    1
    33    26    28    1
    34     8    10    1
    35     8    11    1
@<TRIPOS>MOLECULE
*****
 34 35 0 0 0
SMALL
GASTEIGER

@<TRIPOS>ATOM
      1 C         140.3272  140.4716  167.0869 C.ar    1  UNL1        0.0730
      2 C         139.9983  139.9905  165.7047 C.ar    1  UNL1        0.0322
      3 C         138.8224  139.0853  165.4856 C.ar    1  UNL1        0.0654
      4 C         137.9755  138.6612  166.6487 C.ar    1  UNL1        0.1133
      5 N         138.3043  139.1422  168.0308 N.ar    1  UNL1       -0.2367
      6 C         139.4802  140.0474  168.2500 C.ar    1  UNL1        0.1476
      7 C         139.8090  140.5285  169.6321 C.2     1  UNL1        0.2617
      8 N         140.1398  139.5405  170.7112 N.am    1  UNL1       -0.3240
      9 O         139.8071  141.9976  169.9352 O.2     1  UNL1       -0.2687
     10 H         140.1410  138.5763  170.5123 H       1  UNL1        0.1453
     11 H         140.3556  139.8563  171.6184 H       1  UNL1        0.1453
     12 N         141.5030  141.3768  167.3060 N.pl3   1  UNL1       -0.2966
     13 H         141.8539  141.5166  168.2151 H       1  UNL1        0.1537
     14 C         145.4554  141.8383  163.9646 C.3     1  UNL1        0.0312
     15 C         144.1204  142.2998  164.4692 C.ar    1  UNL1       -0.0179
     16 C         143.4265  143.4535  163.8078 C.ar    1  UNL1        0.0106
     17 C         142.0914  143.9150  164.3124 C.ar    1  UNL1        0.0605
     18 C         141.3976  145.0687  163.6510 C.3     1  UNL1        0.0521
     19 N         141.4503  143.2228  165.4785 N.ar    1  UNL1       -0.2349
     20 C         142.1441  142.0691  166.1399 C.ar    1  UNL1        0.1315
     21 C         143.4792  141.6076  165.6352 C.ar    1  UNL1        0.0301
     22 N         138.4935  138.6042  164.1034 N.pl3   1  UNL1       -0.3303
     23 H         137.7121  138.9688  163.6282 H       1  UNL1        0.1469
     24 C         139.3552  137.5677  163.4452 C.3     1  UNL1        0.1028
     25 C         140.3830  137.9794  162.4332 C.3     1  UNL1        0.0723
     26 N         141.6419  137.1793  162.2745 N.3     1  UNL1       -0.3208
     27 H         141.6323  136.3970  162.9290 H       1  UNL1        0.1189
     28 H         142.4487  137.7731  162.4664 H       1  UNL1        0.1189
     29 C         140.1520  139.1912  161.5800 C.3     1  UNL1        0.0425
     30 C         140.7347  140.5137  161.9819 C.3     1  UNL1        0.1523
     31 S         139.9347  141.7703  161.8061 S.O2    1  UNL1       -0.0082
     32 C         139.1347  143.0269  161.6302 C.3     1  UNL1        0.1760
     33 O         138.7381  141.0924  162.4047 O.2     1  UNL1       -0.1729
     34 O         141.1313  142.4483  161.2074 O.2     1  UNL1       -0.1729
@<TRIPOS>BOND
     1    14    15    1
     2    15    16   ar
     3    16    17   ar
     4    17    18    1
     5    17    19   ar
     6    19    20   ar
     7    20    12    1
     8    12     1    1
     9     1     2   ar
    10     2     3   ar
    11     3    22    1
    12    22    24    1
    13    24    25    1
    14    25    26    1
    15    25    29    1
    16    29    30    1
    17    30    31    1
    18    31    32    1
    19    31    33    2
    20    31    34    2
    21     3     4   ar
    22     4     5   ar
    23     5     6   ar
    24     6     7    1
    25     7     8   am
    26     7     9    2
    27    20    21   ar
    28    21    15   ar
    29     6     1   ar
    30    12    13    1
    31    22    23    1
    32    26    27    1
    33    26    28    1
    34     8    10    1
    35     8    11    1
@<TRIPOS>MOLECULE
*****
 34 35 0 0 0
SMALL
GASTEIGER

@<TRIPOS>ATOM
      1 C         139.3238  143.5462  162.7495 C.ar    1  UNL1        0.0730
      2 C         138.5507  142.2714  162.9140 C.ar    1  UNL1        0.0322
      3 C         138.0319  141.5478  161.7068 C.ar    1  UNL1        0.0654
      4 C         138.2861  142.0991  160.3352 C.ar    1  UNL1        0.1133
      5 N         139.0592  143.3739  160.1707 N.ar    1  UNL1       -0.2367
      6 C         139.5781  144.0975  161.3778 C.ar    1  UNL1        0.1476
      7 C         140.3512  145.3723  161.2133 C.2     1  UNL1        0.2617
      8 N         141.6177  145.3830  160.4097 N.am    1  UNL1       -0.3240
      9 O         139.8577  146.6365  161.8523 O.2     1  UNL1       -0.2687
     10 H         141.9416  144.5533  159.9903 H       1  UNL1        0.1453
     11 H         142.1251  146.2198  160.3018 H       1  UNL1        0.1453
     12 N         139.8427  144.2698  163.9566 N.pl3   1  UNL1       -0.2966
     13 H         139.5233  145.1784  164.1610 H       1  UNL1        0.1537
     14 C         140.9881  141.7884  168.3760 C.3     1  UNL1        0.0312
     15 C         141.4209  142.3685  167.0621 C.ar    1  UNL1       -0.0179
     16 C         142.8592  142.2878  166.6441 C.ar    1  UNL1        0.0106
     17 C         143.2920  142.8678  165.3302 C.ar    1  UNL1        0.0605
     18 C         144.7304  142.7872  164.9121 C.3     1  UNL1        0.0521
     19 N         142.2865  143.5285  164.4344 N.ar    1  UNL1       -0.2349
     20 C         140.8483  143.6091  164.8524 C.ar    1  UNL1        0.1315
     21 C         140.4154  143.0291  166.1663 C.ar    1  UNL1        0.0301
     22 N         137.2588  140.2729  161.8713 N.pl3   1  UNL1       -0.3303
     23 H         136.4261  140.2665  162.3965 H       1  UNL1        0.1469
     24 C         137.7545  139.0079  161.2357 C.3     1  UNL1        0.1028
     25 C         139.1139  138.4771  161.5823 C.3     1  UNL1        0.0723
     26 N         140.2032  138.4740  160.5511 N.3     1  UNL1       -0.3208
     27 H         139.8469  138.8651  159.6790 H       1  UNL1        0.1189
     28 H         140.5173  137.5168  160.3911 H       1  UNL1        0.1189
     29 C         139.3840  137.9494  162.9602 C.3     1  UNL1        0.0425
     30 C         140.6936  137.2845  163.2653 C.3     1  UNL1        0.1523
     31 S         141.8278  138.0863  163.8316 S.O2    1  UNL1       -0.0082
     32 C         142.9620  138.8881  164.3978 C.3     1  UNL1        0.1760
     33 O         141.0821  138.2274  165.1254 O.2     1  UNL1       -0.1729
     34 O         142.5735  137.9452  162.5378 O.2     1  UNL1       -0.1729
@<TRIPOS>BOND
     1    14    15    1
     2    15    16   ar
     3    16    17   ar
     4    17    18    1
     5    17    19   ar
     6    19    20   ar
     7    20    12    1
     8    12     1    1
     9     1     2   ar
    10     2     3   ar
    11     3    22    1
    12    22    24    1
    13    24    25    1
    14    25    26    1
    15    25    29    1
    16    29    30    1
    17    30    31    1
    18    31    32    1
    19    31    33    2
    20    31    34    2
    21     3     4   ar
    22     4     5   ar
    23     5     6   ar
    24     6     7    1
    25     7     8   am
    26     7     9    2
    27    20    21   ar
    28    21    15   ar
    29     6     1   ar
    30    12    13    1
    31    22    23    1
    32    26    27    1
    33    26    28    1
    34     8    10    1
    35     8    11    1
@<TRIPOS>MOLECULE
*****
 34 35 0 0 0
SMALL
GASTEIGER

@<TRIPOS>ATOM
      1 C         143.3260  142.7856  164.1863 C.ar    1  UNL1        0.0730
      2 C         142.2759  143.8481  164.3221 C.ar    1  UNL1        0.0322
      3 C         141.7766  144.5692  163.1052 C.ar    1  UNL1        0.0654
      4 C         142.3274  144.2277  161.7524 C.ar    1  UNL1        0.1133
      5 N         143.3775  143.1652  161.6165 N.ar    1  UNL1       -0.2367
      6 C         143.8768  142.4442  162.8334 C.ar    1  UNL1        0.1476
      7 C         144.9268  141.3817  162.6975 C.2     1  UNL1        0.2617
      8 N         144.6236  140.1193  161.9464 N.am    1  UNL1       -0.3240
      9 O         146.2802  141.5817  163.3129 O.2     1  UNL1       -0.2687
     10 H         143.7354  139.9880  161.5425 H       1  UNL1        0.1453
     11 H         145.3129  139.4219  161.8572 H       1  UNL1        0.1453
     12 N         143.8252  142.0646  165.4031 N.pl3   1  UNL1       -0.2966
     13 H         144.7382  141.6967  165.4173 H       1  UNL1        0.1537
     14 C         139.5495  140.0854  167.5942 C.3     1  UNL1        0.0312
     15 C         140.7955  140.9146  167.6940 C.ar    1  UNL1       -0.0179
     16 C         141.1496  141.5833  168.9891 C.ar    1  UNL1        0.0106
     17 C         142.3956  142.4125  169.0889 C.ar    1  UNL1        0.0605
     18 C         142.7497  143.0813  170.3841 C.3     1  UNL1        0.0521
     19 N         143.2875  142.5729  167.8936 N.ar    1  UNL1       -0.2349
     20 C         142.9333  141.9042  166.5985 C.ar    1  UNL1        0.1315
     21 C         141.6873  141.0750  166.4987 C.ar    1  UNL1        0.0301
     22 N         140.7266  145.6317  163.2410 N.pl3   1  UNL1       -0.3303
     23 H         140.9886  146.5794  163.2891 H       1  UNL1        0.1469
     24 C         139.2772  145.2501  163.3037 C.3     1  UNL1        0.1028
     25 C         138.8301  143.9152  162.7857 C.3     1  UNL1        0.0723
     26 N         138.6864  143.6935  161.3091 N.3     1  UNL1       -0.3208
     27 H         138.9317  144.5493  160.8113 H       1  UNL1        0.1189
     28 H         137.7216  143.4406  161.0956 H       1  UNL1        0.1189
     29 C         138.5266  142.8022  163.7443 C.3     1  UNL1        0.0425
     30 C         137.4327  141.8235  163.4351 C.3     1  UNL1        0.1523
     31 S         137.7719  140.4644  162.8984 S.O2    1  UNL1       -0.0082
     32 C         138.1111  139.1054  162.3617 C.3     1  UNL1        0.1760
     33 O         138.1547  140.0153  164.2774 O.2     1  UNL1       -0.1729
     34 O         137.3891  140.9135  161.5194 O.2     1  UNL1       -0.1729
@<TRIPOS>BOND
     1    14    15    1
     2    15    16   ar
     3    16    17   ar
     4    17    18    1
     5    17    19   ar
     6    19    20   ar
     7    20    12    1
     8    12     1    1
     9     1     2   ar
    10     2     3   ar
    11     3    22    1
    12    22    24    1
    13    24    25    1
    14    25    26    1
    15    25    29    1
    16    29    30    1
    17    30    31    1
    18    31    32    1
    19    31    33    2
    20    31    34    2
    21     3     4   ar
    22     4     5   ar
    23     5     6   ar
    24     6     7    1
    25     7     8   am
    26     7     9    2
    27    20    21   ar
    28    21    15   ar
    29     6     1   ar
    30    12    13    1
    31    22    23    1
    32    26    27    1
    33    26    28    1
    34     8    10    1
    35     8    11    1
@<TRIPOS>MOLECULE
*****
 34 35 0 0 0
SMALL
GASTEIGER

@<TRIPOS>ATOM
      1 C         143.4995  139.6726  163.0349 C.ar    1  UNL1        0.0730
      2 C         144.0721  141.0400  163.2638 C.ar    1  UNL1        0.0322
      3 C         144.2948  141.9638  162.1031 C.ar    1  UNL1        0.0654
      4 C         143.9448  141.5202  160.7137 C.ar    1  UNL1        0.1133
      5 N         143.3722  140.1528  160.4848 N.ar    1  UNL1       -0.2367
      6 C         143.1495  139.2290  161.6454 C.ar    1  UNL1        0.1476
      7 C         142.5769  137.8616  161.4165 C.2     1  UNL1        0.2617
      8 N         143.2456  136.9189  160.4604 N.am    1  UNL1       -0.3240
      9 O         141.3356  137.4370  162.1437 O.2     1  UNL1       -0.2687
     10 H         144.0603  137.1976  159.9831 H       1  UNL1        0.1453
     11 H         142.8698  136.0214  160.3102 H       1  UNL1        0.1453
     12 N         143.2769  138.7488  164.1955 N.pl3   1  UNL1       -0.2966
     13 H         143.7501  137.8865  164.2361 H       1  UNL1        0.1537
     14 C         142.4311  140.0085  169.1652 C.3     1  UNL1        0.0312
     15 C         141.9103  139.7687  167.7791 C.ar    1  UNL1       -0.0179
     16 C         140.4458  139.9190  167.4918 C.ar    1  UNL1        0.0106
     17 C         139.9249  139.6792  166.1057 C.ar    1  UNL1        0.0605
     18 C         138.4603  139.8295  165.8184 C.3     1  UNL1        0.0521
     19 N         140.8686  139.2892  165.0070 N.ar    1  UNL1       -0.2349
     20 C         142.3331  139.1389  165.2943 C.ar    1  UNL1        0.1315
     21 C         142.8539  139.3787  166.6804 C.ar    1  UNL1        0.0301
     22 N         144.8674  143.3311  162.3320 N.pl3   1  UNL1       -0.3303
     23 H         145.7924  143.5294  162.0594 H       1  UNL1        0.1469
     24 C         144.0306  144.3964  162.9763 C.3     1  UNL1        0.1028
     25 C         142.5744  144.5142  162.6364 C.3     1  UNL1        0.0723
     26 N         142.1575  144.9292  161.2565 N.3     1  UNL1       -0.3208
     27 H         142.9867  145.0897  160.6846 H       1  UNL1        0.1189
     28 H         141.6103  145.7883  161.3106 H       1  UNL1        0.1189
     29 C         141.5351  144.2170  163.6763 C.3     1  UNL1        0.0425
     30 C         140.1843  144.8638  163.5930 C.3     1  UNL1        0.1523
     31 S         139.0183  144.0971  163.0427 S.O2    1  UNL1       -0.0082
     32 C         137.8523  143.3305  162.4924 C.3     1  UNL1        0.1760
     33 O         139.0029  143.2379  164.2721 O.2     1  UNL1       -0.1729
     34 O         139.0336  144.9563  161.8133 O.2     1  UNL1       -0.1729
@<TRIPOS>BOND
     1    14    15    1
     2    15    16   ar
     3    16    17   ar
     4    17    18    1
     5    17    19   ar
     6    19    20   ar
     7    20    12    1
     8    12     1    1
     9     1     2   ar
    10     2     3   ar
    11     3    22    1
    12    22    24    1
    13    24    25    1
    14    25    26    1
    15    25    29    1
    16    29    30    1
    17    30    31    1
    18    31    32    1
    19    31    33    2
    20    31    34    2
    21     3     4   ar
    22     4     5   ar
    23     5     6   ar
    24     6     7    1
    25     7     8   am
    26     7     9    2
    27    20    21   ar
    28    21    15   ar
    29     6     1   ar
    30    12    13    1
    31    22    23    1
    32    26    27    1
    33    26    28    1
    34     8    10    1
    35     8    11    1
@<TRIPOS>MOLECULE
*****
 34 35 0 0 0
SMALL
GASTEIGER

@<TRIPOS>ATOM
      1 C         138.2043  140.3433  163.4124 C.ar    1  UNL1        0.0730
      2 C         137.9596  141.8169  163.5491 C.ar    1  UNL1        0.0322
      3 C         137.9490  142.6916  162.3305 C.ar    1  UNL1        0.0654
      4 C         138.1830  142.0927  160.9753 C.ar    1  UNL1        0.1133
      5 N         138.4277  140.6191  160.8386 N.ar    1  UNL1       -0.2367
      6 C         138.4383  139.7444  162.0571 C.ar    1  UNL1        0.1476
      7 C         138.6829  138.2708  161.9204 C.2     1  UNL1        0.2617
      8 N         137.5237  137.3220  161.8439 N.am    1  UNL1       -0.3240
      9 O         140.0869  137.7460  161.8602 O.2     1  UNL1       -0.2687
     10 H         136.6022  137.6665  161.8834 H       1  UNL1        0.1453
     11 H         137.6842  136.3549  161.7542 H       1  UNL1        0.1453
     12 N         138.2149  139.4686  164.6308 N.pl3   1  UNL1       -0.2966
     13 H         137.4691  138.8480  164.7978 H       1  UNL1        0.1537
     14 C         143.2520  138.7604  165.6918 C.3     1  UNL1        0.0312
     15 C         141.8804  139.1854  166.1255 C.ar    1  UNL1       -0.0179
     16 C         141.6557  139.6811  167.5232 C.ar    1  UNL1        0.0106
     17 C         140.2840  140.1060  167.9568 C.ar    1  UNL1        0.0605
     18 C         140.0593  140.6018  169.3546 C.3     1  UNL1        0.0521
     19 N         139.1371  140.0352  166.9927 N.ar    1  UNL1       -0.2349
     20 C         139.3618  139.5395  165.5950 C.ar    1  UNL1        0.1315
     21 C         140.7335  139.1145  165.1614 C.ar    1  UNL1        0.0301
     22 N         137.7044  144.1652  162.4672 N.pl3   1  UNL1       -0.3303
     23 H         136.7872  144.5189  162.4144 H       1  UNL1        0.1469
     24 C         138.8574  145.0999  162.6843 C.3     1  UNL1        0.1028
     25 C         139.6939  144.9836  163.9240 C.3     1  UNL1        0.0723
     26 N         139.0500  145.0818  165.2752 N.3     1  UNL1       -0.3208
     27 H         138.0464  145.2265  165.1639 H       1  UNL1        0.1189
     28 H         139.4520  145.8671  165.7872 H       1  UNL1        0.1189
     29 C         141.1743  144.7692  163.8124 C.3     1  UNL1        0.0425
     30 C         141.7352  143.3784  163.8452 C.3     1  UNL1        0.1523
     31 S         142.6262  142.9555  164.9754 S.O2    1  UNL1       -0.0082
     32 C         143.5171  142.5326  166.1056 C.3     1  UNL1        0.1760
     33 O         141.4300  142.8306  165.8717 O.2     1  UNL1       -0.1729
     34 O         143.8224  143.0804  164.0791 O.2     1  UNL1       -0.1729
@<TRIPOS>BOND
     1    14    15    1
     2    15    16   ar
     3    16    17   ar
     4    17    18    1
     5    17    19   ar
     6    19    20   ar
     7    20    12    1
     8    12     1    1
     9     1     2   ar
    10     2     3   ar
    11     3    22    1
    12    22    24    1
    13    24    25    1
    14    25    26    1
    15    25    29    1
    16    29    30    1
    17    30    31    1
    18    31    32    1
    19    31    33    2
    20    31    34    2
    21     3     4   ar
    22     4     5   ar
    23     5     6   ar
    24     6     7    1
    25     7     8   am
    26     7     9    2
    27    20    21   ar
    28    21    15   ar
    29     6     1   ar
    30    12    13    1
    31    22    23    1
    32    26    27    1
    33    26    28    1
    34     8    10    1
    35     8    11    1
