@<TRIPOS>MOLECULE
*****
 33 37 0 0 0
SMALL
GASTEIGER

@<TRIPOS>ATOM
      1 N         137.3524  140.1754  161.8846 N.3     1  UNL1       -0.2863
      2 H         136.4027  140.1987  162.2559 H       1  UNL1        0.1240
      3 C         138.1979  141.0046  162.8053 C.3     1  UNL1        0.1340
      4 C         137.8802  141.3385  164.2328 C.3     1  UNL1        0.0470
      5 C         138.9954  142.1857  164.7698 C.3     1  UNL1        0.1001
      6 N         140.0023  142.3755  163.6743 N.am    1  UNL1       -0.2575
      7 C         139.5094  141.6455  162.4602 C.2     1  UNL1        0.2437
      8 O         140.2057  141.5697  161.1338 O.2     1  UNL1       -0.2731
      9 C         141.2782  143.1579  163.7752 C.ar    1  UNL1        0.0553
     10 C         141.2400  144.6573  163.7806 C.ar    1  UNL1        0.0150
     11 C         142.5158  145.4397  163.8815 C.ar    1  UNL1        0.0028
     12 C         143.8298  144.7226  163.9770 C.ar    1  UNL1        0.0192
     13 C         143.8680  143.2231  163.9716 C.ar    1  UNL1        0.0825
     14 N         145.1820  142.5060  164.0671 N.ar    1  UNL1       -0.2438
     15 C         145.2202  141.0065  164.0618 C.ar    1  UNL1        0.0988
     16 C         143.9443  140.2241  163.9609 C.ar    1  UNL1        0.0207
     17 C         142.6304  140.9412  163.8653 C.ar    1  UNL1        0.0043
     18 C         142.5922  142.4407  163.8707 C.ar    1  UNL1        0.0314
     19 C         137.6908  138.7328  161.6514 C.3     1  UNL1        0.1151
     20 N         139.6077  137.6067  163.1356 N.ar    1  UNL1       -0.3070
     21 C         141.0556  137.2761  162.9252 C.ar    1  UNL1        0.1786
     22 N         141.4333  137.7095  161.5396 N.ar    1  UNL1       -0.2226
     23 C         140.2188  138.3079  160.8939 C.ar    1  UNL1        0.1147
     24 C         139.0905  138.2444  161.8803 C.ar    1  UNL1        0.0739
     25 C         138.8160  137.3455  164.3826 C.3     1  UNL1        0.1340
     26 C         139.3999  139.9500  168.0056 C.ar    1  UNL1        0.0684
     27 C         138.0958  139.2395  167.7950 C.ar    1  UNL1        0.0100
     28 C         137.9011  138.3714  166.5873 C.ar    1  UNL1       -0.0017
     29 C         139.0106  138.2137  165.5903 C.ar    1  UNL1        0.0005
     30 C         140.3148  138.9242  165.8009 C.ar    1  UNL1       -0.0017
     31 C         140.5094  139.7923  167.0085 C.ar    1  UNL1        0.0100
     32 N         139.7892  141.6863  170.4208 N.1     1  UNL1       -0.1908
     33 C         139.5945  140.8182  169.2132 C.1     1  UNL1        0.1004
@<TRIPOS>BOND
     1    32    33    3
     2    33    26    1
     3    26    27   ar
     4    27    28   ar
     5    28    29   ar
     6    29    25    1
     7    25    20    1
     8    20    21   ar
     9    21    22   ar
    10    22    23   ar
    11    23    24   ar
    12    24    19    1
    13    19     1    1
    14     3     1    1
    15     3     4    1
    16     4     5    1
    17     5     6    1
    18     6     9    1
    19     9    10   ar
    20    10    11   ar
    21    11    12   ar
    22    12    13   ar
    23    13    14   ar
    24    14    15   ar
    25    15    16   ar
    26    16    17   ar
    27    17    18   ar
    28     6     7   am
    29     7     8    2
    30    29    30   ar
    31    30    31   ar
    32    31    26   ar
    33    24    20   ar
    34     7     3    1
    35    18     9   ar
    36    18    13   ar
    37     1     2    1
@<TRIPOS>MOLECULE
*****
 33 37 0 0 0
SMALL
GASTEIGER

@<TRIPOS>ATOM
      1 N         145.4737  140.2372  163.6296 N.3     1  UNL1       -0.2863
      2 H         146.0561  139.7418  164.3047 H       1  UNL1        0.1240
      3 C         144.0550  139.8345  163.9038 C.3     1  UNL1        0.1340
      4 C         143.5208  139.3203  165.2077 C.3     1  UNL1        0.0470
      5 C         142.0571  139.0433  165.0320 C.3     1  UNL1        0.1001
      6 N         141.6866  139.3864  163.6196 N.am    1  UNL1       -0.2575
      7 C         142.9214  139.8754  162.9223 C.2     1  UNL1        0.2437
      8 O         143.0076  140.3262  161.4942 O.2     1  UNL1       -0.2731
      9 C         140.3212  139.2624  163.0112 C.ar    1  UNL1        0.0553
     10 C         139.7578  137.9068  162.7030 C.ar    1  UNL1        0.0150
     11 C         138.3923  137.7827  162.0946 C.ar    1  UNL1        0.0028
     12 C         137.5903  139.0142  161.7944 C.ar    1  UNL1        0.0192
     13 C         138.1537  140.3698  162.1026 C.ar    1  UNL1        0.0825
     14 N         137.3516  141.6013  161.8024 N.ar    1  UNL1       -0.2438
     15 C         137.9150  142.9568  162.1106 C.ar    1  UNL1        0.0988
     16 C         139.2805  143.0809  162.7190 C.ar    1  UNL1        0.0207
     17 C         140.0825  141.8495  163.0192 C.ar    1  UNL1        0.0043
     18 C         139.5191  140.4939  162.7110 C.ar    1  UNL1        0.0314
     19 C         145.8689  141.6827  163.6950 C.3     1  UNL1        0.1151
     20 N         144.0458  143.4895  164.4413 N.ar    1  UNL1       -0.3070
     21 C         143.1610  144.4634  163.7211 C.ar    1  UNL1        0.1786
     22 N         143.4222  144.3269  162.2503 N.ar    1  UNL1       -0.2226
     23 C         144.4684  143.2687  162.0616 C.ar    1  UNL1        0.1147
     24 C         144.8538  142.7511  163.4157 C.ar    1  UNL1        0.0739
     25 C         144.1111  143.2891  165.9264 C.3     1  UNL1        0.1340
     26 C         140.7643  141.1686  168.0601 C.ar    1  UNL1        0.0684
     27 C         142.1401  141.1897  168.6573 C.ar    1  UNL1        0.0100
     28 C         143.2557  141.8965  167.9461 C.ar    1  UNL1       -0.0017
     29 C         142.9955  142.5823  166.6377 C.ar    1  UNL1        0.0005
     30 C         141.6196  142.5612  166.0405 C.ar    1  UNL1       -0.0017
     31 C         140.5041  141.8543  166.7517 C.ar    1  UNL1        0.0100
     32 N         138.5332  139.7549  169.4826 N.1     1  UNL1       -0.1908
     33 C         139.6487  140.4617  168.7713 C.1     1  UNL1        0.1004
@<TRIPOS>BOND
     1    32    33    3
     2    33    26    1
     3    26    27   ar
     4    27    28   ar
     5    28    29   ar
     6    29    25    1
     7    25    20    1
     8    20    21   ar
     9    21    22   ar
    10    22    23   ar
    11    23    24   ar
    12    24    19    1
    13    19     1    1
    14     3     1    1
    15     3     4    1
    16     4     5    1
    17     5     6    1
    18     6     9    1
    19     9    10   ar
    20    10    11   ar
    21    11    12   ar
    22    12    13   ar
    23    13    14   ar
    24    14    15   ar
    25    15    16   ar
    26    16    17   ar
    27    17    18   ar
    28     6     7   am
    29     7     8    2
    30    29    30   ar
    31    30    31   ar
    32    31    26   ar
    33    24    20   ar
    34     7     3    1
    35    18     9   ar
    36    18    13   ar
    37     1     2    1
@<TRIPOS>MOLECULE
*****
 33 37 0 0 0
SMALL
GASTEIGER

@<TRIPOS>ATOM
      1 N         144.4013  138.3430  161.2449 N.3     1  UNL1       -0.2863
      2 H         144.5859  138.7911  160.3474 H       1  UNL1        0.1240
      3 C         144.2573  139.4417  162.2559 C.3     1  UNL1        0.1340
      4 C         144.7585  139.4105  163.6694 C.3     1  UNL1        0.0470
      5 C         144.3977  140.7140  164.3180 C.3     1  UNL1        0.1001
      6 N         143.6736  141.5508  163.3055 N.am    1  UNL1       -0.2575
      7 C         143.5868  140.7645  162.0310 C.2     1  UNL1        0.2437
      8 O         142.9426  141.2208  160.7556 O.2     1  UNL1       -0.2731
      9 C         143.1314  142.9316  163.5282 C.ar    1  UNL1        0.0553
     10 C         144.0314  144.1229  163.3845 C.ar    1  UNL1        0.0150
     11 C         143.4892  145.5037  163.6073 C.ar    1  UNL1        0.0028
     12 C         142.0470  145.6930  163.9737 C.ar    1  UNL1        0.0192
     13 C         141.1470  144.5016  164.1174 C.ar    1  UNL1        0.0825
     14 N         139.7048  144.6910  164.4838 N.ar    1  UNL1       -0.2438
     15 C         138.8049  143.4997  164.6275 C.ar    1  UNL1        0.0988
     16 C         139.3471  142.1189  164.4047 C.ar    1  UNL1        0.0207
     17 C         140.7892  141.9296  164.0383 C.ar    1  UNL1        0.0043
     18 C         141.6892  143.1209  163.8946 C.ar    1  UNL1        0.0314
     19 C         143.2763  137.3760  161.0230 C.3     1  UNL1        0.1151
     20 N         140.8346  137.7871  162.0300 N.ar    1  UNL1       -0.3070
     21 C         139.5673  138.4065  161.5199 C.ar    1  UNL1        0.1786
     22 N         139.8133  138.8767  160.1168 N.ar    1  UNL1       -0.2226
     23 C         141.2327  138.5479  159.7600 C.ar    1  UNL1        0.1147
     24 C         141.8639  137.8745  160.9424 C.ar    1  UNL1        0.0739
     25 C         141.0371  137.1859  163.3893 C.3     1  UNL1        0.1340
     26 C         140.0687  139.5790  167.0751 C.ar    1  UNL1        0.0684
     27 C         138.9639  138.9616  166.2701 C.ar    1  UNL1        0.0100
     28 C         139.2867  138.1639  165.0415 C.ar    1  UNL1       -0.0017
     29 C         140.7143  137.9836  164.6179 C.ar    1  UNL1        0.0005
     30 C         141.8191  138.6011  165.4230 C.ar    1  UNL1       -0.0017
     31 C         141.4963  139.3987  166.6515 C.ar    1  UNL1        0.0100
     32 N         139.4231  141.1744  169.5323 N.1     1  UNL1       -0.1908
     33 C         139.7459  140.3767  168.3037 C.1     1  UNL1        0.1004
@<TRIPOS>BOND
     1    32    33    3
     2    33    26    1
     3    26    27   ar
     4    27    28   ar
     5    28    29   ar
     6    29    25    1
     7    25    20    1
     8    20    21   ar
     9    21    22   ar
    10    22    23   ar
    11    23    24   ar
    12    24    19    1
    13    19     1    1
    14     3     1    1
    15     3     4    1
    16     4     5    1
    17     5     6    1
    18     6     9    1
    19     9    10   ar
    20    10    11   ar
    21    11    12   ar
    22    12    13   ar
    23    13    14   ar
    24    14    15   ar
    25    15    16   ar
    26    16    17   ar
    27    17    18   ar
    28     6     7   am
    29     7     8    2
    30    29    30   ar
    31    30    31   ar
    32    31    26   ar
    33    24    20   ar
    34     7     3    1
    35    18     9   ar
    36    18    13   ar
    37     1     2    1
@<TRIPOS>MOLECULE
*****
 33 37 0 0 0
SMALL
GASTEIGER

@<TRIPOS>ATOM
      1 N         144.0643  139.1178  160.8620 N.3     1  UNL1       -0.2863
      2 H         143.5571  138.9927  159.9859 H       1  UNL1        0.1240
      3 C         143.7870  140.5166  161.3271 C.3     1  UNL1        0.1340
      4 C         144.7472  141.4108  162.0540 C.3     1  UNL1        0.0470
      5 C         144.0544  142.7137  162.3230 C.3     1  UNL1        0.1001
      6 N         142.6659  142.6248  161.7624 N.am    1  UNL1       -0.2575
      7 C         142.5007  141.2670  161.1468 C.2     1  UNL1        0.2437
      8 O         141.2660  140.7501  160.4699 O.2     1  UNL1       -0.2731
      9 C         141.6255  143.7043  161.8090 C.ar    1  UNL1        0.0553
     10 C         141.4618  144.6389  160.6473 C.ar    1  UNL1        0.0150
     11 C         140.4213  145.7184  160.6940 C.ar    1  UNL1        0.0028
     12 C         139.5445  145.8632  161.9023 C.ar    1  UNL1        0.0192
     13 C         139.7081  144.9285  163.0641 C.ar    1  UNL1        0.0825
     14 N         138.8313  145.0733  164.2724 N.ar    1  UNL1       -0.2438
     15 C         138.9949  144.1386  165.4341 C.ar    1  UNL1        0.0988
     16 C         140.0354  143.0592  165.3875 C.ar    1  UNL1        0.0207
     17 C         140.9122  142.9144  164.1791 C.ar    1  UNL1        0.0043
     18 C         140.7486  143.8490  163.0174 C.ar    1  UNL1        0.0314
     19 C         143.7102  137.9524  161.7376 C.3     1  UNL1        0.1151
     20 N         142.3573  138.3748  164.0039 N.ar    1  UNL1       -0.3070
     21 C         140.9195  138.2648  164.4172 C.ar    1  UNL1        0.1786
     22 N         140.1290  137.8072  163.2272 N.ar    1  UNL1       -0.2226
     23 C         141.0782  137.6345  162.0787 C.ar    1  UNL1        0.1147
     24 C         142.4554  137.9853  162.5587 C.ar    1  UNL1        0.0739
     25 C         143.4969  138.7998  164.8818 C.3     1  UNL1        0.1340
     26 C         142.7672  141.6297  168.3037 C.ar    1  UNL1        0.0684
     27 C         142.5827  140.1538  168.4986 C.ar    1  UNL1        0.0100
     28 C         142.8260  139.2106  167.3579 C.ar    1  UNL1       -0.0017
     29 C         143.2536  139.7431  166.0224 C.ar    1  UNL1        0.0005
     30 C         143.4380  141.2189  165.8276 C.ar    1  UNL1       -0.0017
     31 C         143.1948  142.1621  166.9682 C.ar    1  UNL1        0.0100
     32 N         142.2807  143.5162  170.5850 N.1     1  UNL1       -0.1908
     33 C         142.5239  142.5729  169.4443 C.1     1  UNL1        0.1004
@<TRIPOS>BOND
     1    32    33    3
     2    33    26    1
     3    26    27   ar
     4    27    28   ar
     5    28    29   ar
     6    29    25    1
     7    25    20    1
     8    20    21   ar
     9    21    22   ar
    10    22    23   ar
    11    23    24   ar
    12    24    19    1
    13    19     1    1
    14     3     1    1
    15     3     4    1
    16     4     5    1
    17     5     6    1
    18     6     9    1
    19     9    10   ar
    20    10    11   ar
    21    11    12   ar
    22    12    13   ar
    23    13    14   ar
    24    14    15   ar
    25    15    16   ar
    26    16    17   ar
    27    17    18   ar
    28     6     7   am
    29     7     8    2
    30    29    30   ar
    31    30    31   ar
    32    31    26   ar
    33    24    20   ar
    34     7     3    1
    35    18     9   ar
    36    18    13   ar
    37     1     2    1
@<TRIPOS>MOLECULE
*****
 33 37 0 0 0
SMALL
GASTEIGER

@<TRIPOS>ATOM
      1 N         137.1485  141.5454  163.2571 N.3     1  UNL1       -0.2863
      2 H         136.6600  140.6751  163.4677 H       1  UNL1        0.1240
      3 C         138.1026  141.7912  164.3881 C.3     1  UNL1        0.1340
      4 C         138.6750  143.1194  164.7859 C.3     1  UNL1        0.0470
      5 C         139.5780  142.9010  165.9636 C.3     1  UNL1        0.1001
      6 N         139.5636  141.4378  166.2936 N.am    1  UNL1       -0.2575
      7 C         138.6518  140.7519  165.3199 C.2     1  UNL1        0.2437
      8 O         138.3433  139.2844  165.2843 O.2     1  UNL1       -0.2731
      9 C         140.3271  140.7766  167.4027 C.ar    1  UNL1        0.0553
     10 C         139.9052  140.9785  168.8279 C.ar    1  UNL1        0.0150
     11 C         140.6687  140.3173  169.9369 C.ar    1  UNL1        0.0028
     12 C         141.8540  139.4542  169.6207 C.ar    1  UNL1        0.0192
     13 C         142.2759  139.2523  168.1955 C.ar    1  UNL1        0.0825
     14 N         143.4613  138.3891  167.8793 N.ar    1  UNL1       -0.2438
     15 C         143.8831  138.1872  166.4541 C.ar    1  UNL1        0.0988
     16 C         143.1197  138.8484  165.3451 C.ar    1  UNL1        0.0207
     17 C         141.9343  139.7115  165.6613 C.ar    1  UNL1        0.0043
     18 C         141.5125  139.9135  167.0864 C.ar    1  UNL1        0.0314
     19 C         137.6643  141.4238  161.8538 C.3     1  UNL1        0.1151
     20 N         139.8848  140.2746  160.9083 N.ar    1  UNL1       -0.3070
     21 C         140.3226  138.8626  160.6540 C.ar    1  UNL1        0.1786
     22 N         139.1983  137.9508  161.0473 N.ar    1  UNL1       -0.2226
     23 C         138.0657  138.7992  161.5446 C.ar    1  UNL1        0.1147
     24 C         138.4900  140.2354  161.4587 C.ar    1  UNL1        0.0739
     25 C         140.6989  141.5090  160.6563 C.3     1  UNL1        0.1340
     26 C         143.3964  143.1216  163.8770 C.ar    1  UNL1        0.0684
     27 C         142.2176  143.9254  163.4139 C.ar    1  UNL1        0.0100
     28 C         141.3184  143.3879  162.3403 C.ar    1  UNL1       -0.0017
     29 C         141.5980  142.0465  161.7299 C.ar    1  UNL1        0.0005
     30 C         142.7768  141.2428  162.1930 C.ar    1  UNL1       -0.0017
     31 C         143.6759  141.7803  163.2665 C.ar    1  UNL1        0.0100
     32 N         145.1946  144.1967  166.0242 N.1     1  UNL1       -0.1908
     33 C         144.2955  143.6592  164.9506 C.1     1  UNL1        0.1004
@<TRIPOS>BOND
     1    32    33    3
     2    33    26    1
     3    26    27   ar
     4    27    28   ar
     5    28    29   ar
     6    29    25    1
     7    25    20    1
     8    20    21   ar
     9    21    22   ar
    10    22    23   ar
    11    23    24   ar
    12    24    19    1
    13    19     1    1
    14     3     1    1
    15     3     4    1
    16     4     5    1
    17     5     6    1
    18     6     9    1
    19     9    10   ar
    20    10    11   ar
    21    11    12   ar
    22    12    13   ar
    23    13    14   ar
    24    14    15   ar
    25    15    16   ar
    26    16    17   ar
    27    17    18   ar
    28     6     7   am
    29     7     8    2
    30    29    30   ar
    31    30    31   ar
    32    31    26   ar
    33    24    20   ar
    34     7     3    1
    35    18     9   ar
    36    18    13   ar
    37     1     2    1
@<TRIPOS>MOLECULE
*****
 33 37 0 0 0
SMALL
GASTEIGER

@<TRIPOS>ATOM
      1 N         139.6829  137.4714  164.7931 N.3     1  UNL1       -0.2863
      2 H         139.2628  136.9854  165.5853 H       1  UNL1        0.1240
      3 C         139.5149  138.9401  165.0475 C.3     1  UNL1        0.1340
      4 C         139.3956  139.5940  166.3922 C.3     1  UNL1        0.0470
      5 C         139.2436  141.0708  166.1775 C.3     1  UNL1        0.1001
      6 N         139.2688  141.3296  164.7002 N.am    1  UNL1       -0.2575
      7 C         139.4365  140.0127  164.0018 C.2     1  UNL1        0.2437
      8 O         139.5125  139.8049  162.5182 O.2     1  UNL1       -0.2731
      9 C         139.1477  142.6699  164.0377 C.ar    1  UNL1        0.0553
     10 C         137.7990  143.1882  163.6349 C.ar    1  UNL1        0.0150
     11 C         137.6779  144.5285  162.9723 C.ar    1  UNL1        0.0028
     12 C         138.9055  145.3504  162.7126 C.ar    1  UNL1        0.0192
     13 C         140.2543  144.8321  163.1154 C.ar    1  UNL1        0.0825
     14 N         141.4818  145.6540  162.8556 N.ar    1  UNL1       -0.2438
     15 C         142.8305  145.1356  163.2584 C.ar    1  UNL1        0.0988
     16 C         142.9516  143.7953  163.9209 C.ar    1  UNL1        0.0207
     17 C         141.7241  142.9734  164.1807 C.ar    1  UNL1        0.0043
     18 C         140.3754  143.4918  163.7779 C.ar    1  UNL1        0.0314
     19 C         141.0553  136.8944  164.6093 C.3     1  UNL1        0.1151
     20 N         143.2289  138.4394  164.7921 N.ar    1  UNL1       -0.3070
     21 C         144.1040  139.1597  163.8095 C.ar    1  UNL1        0.1786
     22 N         143.5660  138.9011  162.4333 N.ar    1  UNL1       -0.2226
     23 C         142.3585  138.0211  162.5655 C.ar    1  UNL1        0.1147
     24 C         142.1502  137.7357  164.0232 C.ar    1  UNL1        0.0739
     25 C         143.4022  138.4253  166.2820 C.3     1  UNL1        0.1340
     26 C         141.9334  141.8891  168.7509 C.ar    1  UNL1        0.0684
     27 C         141.8005  140.4882  169.2702 C.ar    1  UNL1        0.0100
     28 C         142.2902  139.3336  168.4473 C.ar    1  UNL1       -0.0017
     29 C         142.9126  139.5799  167.1050 C.ar    1  UNL1        0.0005
     30 C         143.0454  140.9809  166.5856 C.ar    1  UNL1       -0.0017
     31 C         142.5558  142.1354  167.4085 C.ar    1  UNL1        0.0100
     32 N         140.9542  144.1982  170.3968 N.1     1  UNL1       -0.1908
     33 C         141.4438  143.0436  169.5738 C.1     1  UNL1        0.1004
@<TRIPOS>BOND
     1    32    33    3
     2    33    26    1
     3    26    27   ar
     4    27    28   ar
     5    28    29   ar
     6    29    25    1
     7    25    20    1
     8    20    21   ar
     9    21    22   ar
    10    22    23   ar
    11    23    24   ar
    12    24    19    1
    13    19     1    1
    14     3     1    1
    15     3     4    1
    16     4     5    1
    17     5     6    1
    18     6     9    1
    19     9    10   ar
    20    10    11   ar
    21    11    12   ar
    22    12    13   ar
    23    13    14   ar
    24    14    15   ar
    25    15    16   ar
    26    16    17   ar
    27    17    18   ar
    28     6     7   am
    29     7     8    2
    30    29    30   ar
    31    30    31   ar
    32    31    26   ar
    33    24    20   ar
    34     7     3    1
    35    18     9   ar
    36    18    13   ar
    37     1     2    1
@<TRIPOS>MOLECULE
*****
 33 37 0 0 0
SMALL
GASTEIGER

@<TRIPOS>ATOM
      1 N         145.1030  140.4347  163.0114 N.3     1  UNL1       -0.2863
      2 H         145.8773  141.0663  162.8065 H       1  UNL1        0.1240
      3 C         144.4271  140.9633  164.2418 C.3     1  UNL1        0.1340
      4 C         144.4370  142.3883  164.7100 C.3     1  UNL1        0.0470
      5 C         143.6386  142.4652  165.9776 C.3     1  UNL1        0.1001
      6 N         143.1352  141.0878  166.2927 N.am    1  UNL1       -0.2575
      7 C         143.6225  140.1596  165.2199 C.2     1  UNL1        0.2437
      8 O         143.3527  138.6862  165.1394 O.2     1  UNL1       -0.2731
      9 C         142.2925  140.7057  167.4733 C.ar    1  UNL1        0.0553
     10 C         142.8573  140.7995  168.8597 C.ar    1  UNL1        0.0150
     11 C         142.0146  140.4174  170.0403 C.ar    1  UNL1        0.0028
     12 C         140.6071  139.9415  169.8345 C.ar    1  UNL1        0.0192
     13 C         140.0422  139.8478  168.4481 C.ar    1  UNL1        0.0825
     14 N         138.6347  139.3720  168.2423 N.ar    1  UNL1       -0.2438
     15 C         138.0698  139.2782  166.8559 C.ar    1  UNL1        0.0988
     16 C         138.9125  139.6603  165.6753 C.ar    1  UNL1        0.0207
     17 C         140.3201  140.1361  165.8811 C.ar    1  UNL1        0.0043
     18 C         140.8849  140.2299  167.2675 C.ar    1  UNL1        0.0314
     19 C         144.3256  140.2755  161.7385 C.3     1  UNL1        0.1151
     20 N         141.6809  140.0009  161.4639 N.ar    1  UNL1       -0.3070
     21 C         140.7186  138.8538  161.5537 C.ar    1  UNL1        0.1786
     22 N         141.5022  137.6155  161.8742 N.ar    1  UNL1       -0.2226
     23 C         142.9487  137.9974  161.9824 C.ar    1  UNL1        0.1147
     24 C         143.0592  139.4716  161.7288 C.ar    1  UNL1        0.0739
     25 C         141.3270  141.4270  161.1621 C.3     1  UNL1        0.1340
     26 C         139.2402  143.9322  164.2636 C.ar    1  UNL1        0.0684
     27 C         138.4774  143.4147  163.0802 C.ar    1  UNL1        0.0100
     28 C         139.1730  142.5796  162.0464 C.ar    1  UNL1       -0.0017
     29 C         140.6314  142.2621  162.1959 C.ar    1  UNL1        0.0005
     30 C         141.3941  142.7796  163.3793 C.ar    1  UNL1       -0.0017
     31 C         140.6985  143.6146  164.4130 C.ar    1  UNL1        0.0100
     32 N         137.8490  145.6023  166.3312 N.1     1  UNL1       -0.1908
     33 C         138.5446  144.7672  165.2974 C.1     1  UNL1        0.1004
@<TRIPOS>BOND
     1    32    33    3
     2    33    26    1
     3    26    27   ar
     4    27    28   ar
     5    28    29   ar
     6    29    25    1
     7    25    20    1
     8    20    21   ar
     9    21    22   ar
    10    22    23   ar
    11    23    24   ar
    12    24    19    1
    13    19     1    1
    14     3     1    1
    15     3     4    1
    16     4     5    1
    17     5     6    1
    18     6     9    1
    19     9    10   ar
    20    10    11   ar
    21    11    12   ar
    22    12    13   ar
    23    13    14   ar
    24    14    15   ar
    25    15    16   ar
    26    16    17   ar
    27    17    18   ar
    28     6     7   am
    29     7     8    2
    30    29    30   ar
    31    30    31   ar
    32    31    26   ar
    33    24    20   ar
    34     7     3    1
    35    18     9   ar
    36    18    13   ar
    37     1     2    1
@<TRIPOS>MOLECULE
*****
 33 37 0 0 0
SMALL
GASTEIGER

@<TRIPOS>ATOM
      1 N         137.5182  143.2542  161.9208 N.3     1  UNL1       -0.2863
      2 H         137.6688  143.4864  160.9390 H       1  UNL1        0.1240
      3 C         138.2199  141.9521  162.1703 C.3     1  UNL1        0.1340
      4 C         137.6629  140.7806  162.9235 C.3     1  UNL1        0.0470
      5 C         138.7005  139.6974  162.9291 C.3     1  UNL1        0.1001
      6 N         139.8988  140.1994  162.1794 N.am    1  UNL1       -0.2575
      7 C         139.6018  141.5929  161.7105 C.2     1  UNL1        0.2437
      8 O         140.5246  142.4728  160.9204 O.2     1  UNL1       -0.2731
      9 C         141.1708  139.4412  161.9407 C.ar    1  UNL1        0.0553
     10 C         141.2301  138.3950  160.8674 C.ar    1  UNL1        0.0150
     11 C         142.5021  137.6367  160.6286 C.ar    1  UNL1        0.0028
     12 C         143.7148  137.9246  161.4631 C.ar    1  UNL1        0.0192
     13 C         143.6556  138.9708  162.5365 C.ar    1  UNL1        0.0825
     14 N         144.8683  139.2587  163.3709 N.ar    1  UNL1       -0.2438
     15 C         144.8090  140.3049  164.4442 C.ar    1  UNL1        0.0988
     16 C         143.5370  141.0632  164.6830 C.ar    1  UNL1        0.0207
     17 C         142.3243  140.7753  163.8485 C.ar    1  UNL1        0.0043
     18 C         142.3836  139.7291  162.7752 C.ar    1  UNL1        0.0314
     19 C         137.8901  144.4708  162.7155 C.3     1  UNL1        0.1151
     20 N         139.9033  144.0869  164.4316 N.ar    1  UNL1       -0.3070
     21 C         141.3357  144.5267  164.5018 C.ar    1  UNL1        0.1786
     22 N         141.6211  145.3705  163.2949 N.ar    1  UNL1       -0.2226
     23 C         140.3651  145.4523  162.4789 C.ar    1  UNL1        0.1147
     24 C         139.3035  144.6590  163.1814 C.ar    1  UNL1        0.0739
     25 C         139.1951  143.2262  165.4354 C.3     1  UNL1        0.1340
     26 C         141.5405  140.3717  168.0048 C.ar    1  UNL1        0.0684
     27 C         141.7903  141.8475  168.1027 C.ar    1  UNL1        0.0100
     28 C         141.0085  142.7990  167.2462 C.ar    1  UNL1       -0.0017
     29 C         139.9769  142.2747  166.2919 C.ar    1  UNL1        0.0005
     30 C         139.7270  140.7989  166.1940 C.ar    1  UNL1       -0.0017
     31 C         140.5088  139.8475  167.0504 C.ar    1  UNL1        0.0100
     32 N         143.1040  138.4687  169.7176 N.1     1  UNL1       -0.1908
     33 C         142.3222  139.4202  168.8612 C.1     1  UNL1        0.1004
@<TRIPOS>BOND
     1    32    33    3
     2    33    26    1
     3    26    27   ar
     4    27    28   ar
     5    28    29   ar
     6    29    25    1
     7    25    20    1
     8    20    21   ar
     9    21    22   ar
    10    22    23   ar
    11    23    24   ar
    12    24    19    1
    13    19     1    1
    14     3     1    1
    15     3     4    1
    16     4     5    1
    17     5     6    1
    18     6     9    1
    19     9    10   ar
    20    10    11   ar
    21    11    12   ar
    22    12    13   ar
    23    13    14   ar
    24    14    15   ar
    25    15    16   ar
    26    16    17   ar
    27    17    18   ar
    28     6     7   am
    29     7     8    2
    30    29    30   ar
    31    30    31   ar
    32    31    26   ar
    33    24    20   ar
    34     7     3    1
    35    18     9   ar
    36    18    13   ar
    37     1     2    1
@<TRIPOS>MOLECULE
*****
 33 37 0 0 0
SMALL
GASTEIGER

@<TRIPOS>ATOM
      1 N         143.7146  138.9590  163.9688 N.3     1  UNL1       -0.2863
      2 H         143.7070  138.2978  163.1922 H       1  UNL1        0.1240
      3 C         143.7621  140.3325  163.3677 C.3     1  UNL1        0.1340
      4 C         144.6193  141.4708  163.8363 C.3     1  UNL1        0.0470
      5 C         144.3478  142.6506  162.9506 C.3     1  UNL1        0.1001
      6 N         143.3228  142.2415  161.9347 N.am    1  UNL1       -0.2575
      7 C         142.9609  140.8088  162.1925 C.2     1  UNL1        0.2437
      8 O         141.9714  139.9953  161.4121 O.2     1  UNL1       -0.2731
      9 C         142.7588  143.1122  160.8513 C.ar    1  UNL1        0.0553
     10 C         143.2779  142.9954  159.4489 C.ar    1  UNL1        0.0150
     11 C         142.7139  143.8661  158.3654 C.ar    1  UNL1        0.0028
     12 C         141.6309  144.8536  158.6845 C.ar    1  UNL1        0.0192
     13 C         141.1117  144.9704  160.0869 C.ar    1  UNL1        0.0825
     14 N         140.0286  145.9579  160.4060 N.ar    1  UNL1       -0.2438
     15 C         139.5095  146.0746  161.8084 C.ar    1  UNL1        0.0988
     16 C         140.0735  145.2039  162.8918 C.ar    1  UNL1        0.0207
     17 C         141.1566  144.2165  162.5728 C.ar    1  UNL1        0.0043
     18 C         141.6757  144.0997  161.1704 C.ar    1  UNL1        0.0314
     19 C         142.5822  138.5758  164.8749 C.3     1  UNL1        0.1151
     20 N         140.1374  139.4649  164.2606 N.ar    1  UNL1       -0.3070
     21 C         138.9180  138.8633  163.6272 C.ar    1  UNL1        0.1786
     22 N         139.2269  137.4340  163.2926 N.ar    1  UNL1       -0.2226
     23 C         140.6371  137.1524  163.7193 C.ar    1  UNL1        0.1147
     24 C         141.1998  138.4076  164.3176 C.ar    1  UNL1        0.0739
     25 C         140.2708  140.8762  164.7510 C.3     1  UNL1        0.1340
     26 C         140.3278  141.7270  169.1695 C.ar    1  UNL1        0.0684
     27 C         139.9952  140.3505  168.6750 C.ar    1  UNL1        0.0100
     28 C         139.9762  140.0669  167.2022 C.ar    1  UNL1       -0.0017
     29 C         140.2898  141.1598  166.2239 C.ar    1  UNL1        0.0005
     30 C         140.6224  142.5363  166.7184 C.ar    1  UNL1       -0.0017
     31 C         140.6414  142.8199  168.1911 C.ar    1  UNL1        0.0100
     32 N         140.3659  142.2942  172.1151 N.1     1  UNL1       -0.1908
     33 C         140.3469  142.0106  170.6423 C.1     1  UNL1        0.1004
@<TRIPOS>BOND
     1    32    33    3
     2    33    26    1
     3    26    27   ar
     4    27    28   ar
     5    28    29   ar
     6    29    25    1
     7    25    20    1
     8    20    21   ar
     9    21    22   ar
    10    22    23   ar
    11    23    24   ar
    12    24    19    1
    13    19     1    1
    14     3     1    1
    15     3     4    1
    16     4     5    1
    17     5     6    1
    18     6     9    1
    19     9    10   ar
    20    10    11   ar
    21    11    12   ar
    22    12    13   ar
    23    13    14   ar
    24    14    15   ar
    25    15    16   ar
    26    16    17   ar
    27    17    18   ar
    28     6     7   am
    29     7     8    2
    30    29    30   ar
    31    30    31   ar
    32    31    26   ar
    33    24    20   ar
    34     7     3    1
    35    18     9   ar
    36    18    13   ar
    37     1     2    1
