@<TRIPOS>MOLECULE
*****
 35 38 0 0 0
SMALL
GASTEIGER

@<TRIPOS>ATOM
      1 C         139.3820  142.7034  160.1657 C.ar    1  UNL1        0.2204
      2 N         140.4391  141.6968  160.5110 N.ar    1  UNL1       -0.2089
      3 C         140.2423  140.7721  161.6755 C.ar    1  UNL1        0.1402
      4 C         138.9884  140.8539  162.4948 C.ar    1  UNL1        0.1773
      5 C         137.9313  141.8605  162.1494 C.ar    1  UNL1        0.1402
      6 N         138.1281  142.7853  160.9849 N.ar    1  UNL1       -0.2089
      7 C         140.7201  145.3582  160.5678 C.3     1  UNL1        0.0233
      8 C         140.2478  144.9556  159.2022 C.3     1  UNL1        0.0955
      9 C         140.4446  145.8803  158.0377 C.3     1  UNL1        0.1149
     10 N         139.9723  145.4776  156.6721 N.pl3   1  UNL1       -0.2586
     11 C         139.3032  144.1503  156.4711 C.3     1  UNL1        0.1167
     12 C         139.1065  143.2256  157.6356 C.3     1  UNL1        0.1151
     13 N         139.5788  143.6282  159.0012 N.pl3   1  UNL1       -0.2764
     14 C         140.1691  146.4024  155.5076 C.ar    1  UNL1        0.3185
     15 N         139.5881  147.7781  155.3661 N.ar    1  UNL1       -0.1701
     16 C         140.0414  148.3397  154.0512 C.ar    1  UNL1        0.2766
     17 N         140.9025  147.3111  153.3799 N.ar    1  UNL1       -0.0499
     18 O         140.9814  146.1138  154.2800 O.2     1  UNL1       -0.3164
     19 C         139.6945  149.6924  153.5036 C.3     1  UNL1        0.4557
     20 F         139.3476  151.0452  152.9560 F       1  UNL1       -0.1631
     21 F         139.7384  150.2647  154.8895 F       1  UNL1       -0.1631
     22 F         139.6505  149.1202  152.1177 F       1  UNL1       -0.1631
     23 O         138.7917  139.9291  163.6592 O.3     1  UNL1       -0.4674
     24 C         139.9811  139.3535  164.3691 C.3     1  UNL1        0.2344
     25 C         140.2076  139.6570  165.8205 C.ar    1  UNL1        0.0486
     26 C         141.5854  139.9907  166.3108 C.ar    1  UNL1        0.0014
     27 C         141.8118  140.2943  167.7623 C.ar    1  UNL1        0.0007
     28 C         140.6606  140.2641  168.7233 C.ar    1  UNL1        0.0388
     29 C         139.2828  139.9304  168.2330 C.ar    1  UNL1        0.0302
     30 C         139.0563  139.6268  166.7816 C.ar    1  UNL1        0.1395
     31 F         137.6786  139.2931  166.2913 F       1  UNL1       -0.2044
     32 C         140.8871  140.5676  170.1747 C.3     1  UNL1        0.2827
     33 S         140.6343  141.9496  170.7002 S.O     1  UNL1        0.0405
     34 C         140.5053  143.1019  169.7486 C.3     1  UNL1        0.3201
     35 O         140.5106  142.1793  172.1773 O.co2   1  UNL1       -0.6809
@<TRIPOS>UNITY_ATOM_ATTR
33 1
charge 1
35 1
charge -1
@<TRIPOS>BOND
     1     8     7    1
     2     8     9    1
     3     9    10    1
     4    10    14    1
     5    14    15   ar
     6    15    16   ar
     7    16    19    1
     8    19    20    1
     9    19    21    1
    10    19    22    1
    11    16    17   ar
    12    17    18   ar
    13    10    11    1
    14    11    12    1
    15    12    13    1
    16    13     1    1
    17     1     2   ar
    18     2     3   ar
    19     3     4   ar
    20     4    23    1
    21    23    24    1
    22    24    25    1
    23    25    26   ar
    24    26    27   ar
    25    27    28   ar
    26    28    32    1
    27    32    33    1
    28    33    34    1
    29    33    35    2
    30    28    29   ar
    31    29    30   ar
    32    30    31    1
    33     4     5   ar
    34     5     6   ar
    35    13     8    1
    36     6     1   ar
    37    18    14   ar
    38    30    25   ar
@<TRIPOS>MOLECULE
*****
 35 38 0 0 0
SMALL
GASTEIGER

@<TRIPOS>ATOM
      1 C         141.7871  138.9666  161.4067 C.ar    1  UNL1        0.2204
      2 N         142.9301  138.5178  160.5453 N.ar    1  UNL1       -0.2089
      3 C         142.6906  138.1577  159.1090 C.ar    1  UNL1        0.1402
      4 C         141.3080  138.2465  158.5340 C.ar    1  UNL1        0.1773
      5 C         140.1649  138.6954  159.3954 C.ar    1  UNL1        0.1402
      6 N         140.4045  139.0554  160.8318 N.ar    1  UNL1       -0.2089
      7 C         141.0716  137.0254  163.5792 C.3     1  UNL1        0.0233
      8 C         141.6689  138.3560  163.9292 C.3     1  UNL1        0.0955
      9 C         141.9085  138.7161  165.3655 C.3     1  UNL1        0.1149
     10 N         142.5058  140.0468  165.7156 N.pl3   1  UNL1       -0.2586
     11 C         142.8636  141.0174  164.6293 C.3     1  UNL1        0.1167
     12 C         142.6240  140.6573  163.1931 C.3     1  UNL1        0.1151
     13 N         142.0267  139.3266  162.8430 N.pl3   1  UNL1       -0.2764
     14 C         142.7454  140.4068  167.1519 C.ar    1  UNL1        0.3185
     15 N         142.8885  141.7954  167.7008 N.ar    1  UNL1       -0.1701
     16 C         143.1155  141.6882  169.1796 C.ar    1  UNL1        0.2766
     17 N         143.1127  140.2333  169.5448 N.ar    1  UNL1       -0.0499
     18 O         142.8840  139.4414  168.2916 O.2     1  UNL1       -0.3164
     19 C         143.3110  142.8347  170.1270 C.3     1  UNL1        0.4557
     20 F         143.5064  143.9811  171.0744 F       1  UNL1       -0.1631
     21 F         141.8466  143.1498  170.0478 F       1  UNL1       -0.1631
     22 F         144.7754  142.5196  170.2062 F       1  UNL1       -0.1631
     23 O         141.0684  137.8865  157.0977 O.3     1  UNL1       -0.4674
     24 C         142.1517  137.2230  156.3001 C.3     1  UNL1        0.2344
     25 C         142.2828  135.7288  156.3107 C.ar    1  UNL1        0.0486
     26 C         143.2653  135.0686  157.2320 C.ar    1  UNL1        0.0014
     27 C         143.3964  133.5743  157.2426 C.ar    1  UNL1        0.0007
     28 C         142.5449  132.7403  156.3318 C.ar    1  UNL1        0.0388
     29 C         141.5625  133.4005  155.4105 C.ar    1  UNL1        0.0302
     30 C         141.4314  134.8947  155.3999 C.ar    1  UNL1        0.1395
     31 F         140.4489  135.5549  154.4786 F       1  UNL1       -0.2044
     32 C         142.6760  131.2461  156.3424 C.3     1  UNL1        0.2827
     33 S         144.0066  130.6119  156.6205 S.O     1  UNL1        0.0405
     34 C         144.8741  130.1593  155.4835 C.3     1  UNL1        0.3201
     35 O         144.4697  130.4302  158.0356 O.co2   1  UNL1       -0.6809
@<TRIPOS>UNITY_ATOM_ATTR
33 1
charge 1
35 1
charge -1
@<TRIPOS>BOND
     1     8     7    1
     2     8     9    1
     3     9    10    1
     4    10    14    1
     5    14    15   ar
     6    15    16   ar
     7    16    19    1
     8    19    20    1
     9    19    21    1
    10    19    22    1
    11    16    17   ar
    12    17    18   ar
    13    10    11    1
    14    11    12    1
    15    12    13    1
    16    13     1    1
    17     1     2   ar
    18     2     3   ar
    19     3     4   ar
    20     4    23    1
    21    23    24    1
    22    24    25    1
    23    25    26   ar
    24    26    27   ar
    25    27    28   ar
    26    28    32    1
    27    32    33    1
    28    33    34    1
    29    33    35    2
    30    28    29   ar
    31    29    30   ar
    32    30    31    1
    33     4     5   ar
    34     5     6   ar
    35    13     8    1
    36     6     1   ar
    37    18    14   ar
    38    30    25   ar
@<TRIPOS>MOLECULE
*****
 35 38 0 0 0
SMALL
GASTEIGER

@<TRIPOS>ATOM
      1 C         140.3406  141.8541  160.5747 C.ar    1  UNL1        0.2204
      2 N         139.2021  141.5065  161.4873 N.ar    1  UNL1       -0.2089
      3 C         139.3362  140.3668  162.4532 C.ar    1  UNL1        0.1402
      4 C         140.6089  139.5746  162.5066 C.ar    1  UNL1        0.1773
      5 C         141.7475  139.9222  161.5940 C.ar    1  UNL1        0.1402
      6 N         141.6133  141.0620  160.6280 N.ar    1  UNL1       -0.2089
      7 C         141.2354  144.6056  161.3676 C.3     1  UNL1        0.0233
      8 C         140.6539  144.3696  160.0052 C.3     1  UNL1        0.0955
      9 C         140.5197  145.5092  159.0392 C.3     1  UNL1        0.1149
     10 N         139.9382  145.2732  157.6768 N.pl3   1  UNL1       -0.2586
     11 C         139.4908  143.8975  157.2804 C.3     1  UNL1        0.1167
     12 C         139.6250  142.7578  158.2463 C.3     1  UNL1        0.1151
     13 N         140.2065  142.9939  159.6087 N.pl3   1  UNL1       -0.2764
     14 C         139.8040  146.4130  156.7109 C.ar    1  UNL1        0.3185
     15 N         139.0564  147.6906  156.9531 N.ar    1  UNL1       -0.1701
     16 C         139.1843  148.5424  155.7250 C.ar    1  UNL1        0.2766
     17 N         140.0109  147.7912  154.7238 N.ar    1  UNL1       -0.0499
     18 O         140.3939  146.4751  155.3331 O.2     1  UNL1       -0.3164
     19 C         138.5899  149.9061  155.5321 C.3     1  UNL1        0.4557
     20 F         137.9955  151.2697  155.3391 F       1  UNL1       -0.1631
     21 F         139.1706  149.9636  154.1502 F       1  UNL1       -0.1631
     22 F         138.0092  149.8485  156.9139 F       1  UNL1       -0.1631
     23 O         140.7430  138.4349  163.4725 O.3     1  UNL1       -0.4674
     24 C         141.6479  138.5624  164.6619 C.3     1  UNL1        0.2344
     25 C         141.1219  139.1293  165.9472 C.ar    1  UNL1        0.0486
     26 C         139.6452  139.3103  166.1383 C.ar    1  UNL1        0.0014
     27 C         139.1192  139.8772  167.4236 C.ar    1  UNL1        0.0007
     28 C         140.0699  140.2631  168.5177 C.ar    1  UNL1        0.0388
     29 C         141.5466  140.0821  168.3266 C.ar    1  UNL1        0.0302
     30 C         142.0726  139.5152  167.0414 C.ar    1  UNL1        0.1395
     31 F         143.5494  139.3343  166.8503 F       1  UNL1       -0.2044
     32 C         139.5438  140.8300  169.8030 C.3     1  UNL1        0.2827
     33 S         140.1627  142.0655  170.3867 S.O     1  UNL1        0.0405
     34 C         140.3787  143.2747  169.5256 C.3     1  UNL1        0.3201
     35 O         140.5656  142.0918  171.8313 O.co2   1  UNL1       -0.6809
@<TRIPOS>UNITY_ATOM_ATTR
33 1
charge 1
35 1
charge -1
@<TRIPOS>BOND
     1     8     7    1
     2     8     9    1
     3     9    10    1
     4    10    14    1
     5    14    15   ar
     6    15    16   ar
     7    16    19    1
     8    19    20    1
     9    19    21    1
    10    19    22    1
    11    16    17   ar
    12    17    18   ar
    13    10    11    1
    14    11    12    1
    15    12    13    1
    16    13     1    1
    17     1     2   ar
    18     2     3   ar
    19     3     4   ar
    20     4    23    1
    21    23    24    1
    22    24    25    1
    23    25    26   ar
    24    26    27   ar
    25    27    28   ar
    26    28    32    1
    27    32    33    1
    28    33    34    1
    29    33    35    2
    30    28    29   ar
    31    29    30   ar
    32    30    31    1
    33     4     5   ar
    34     5     6   ar
    35    13     8    1
    36     6     1   ar
    37    18    14   ar
    38    30    25   ar
@<TRIPOS>MOLECULE
*****
 35 38 0 0 0
SMALL
GASTEIGER

@<TRIPOS>ATOM
      1 C         140.7163  138.5454  160.9944 C.ar    1  UNL1        0.2204
      2 N         142.0976  138.1417  160.5715 N.ar    1  UNL1       -0.2089
      3 C         142.3964  137.8949  159.1225 C.ar    1  UNL1        0.1402
      4 C         141.3137  138.0518  158.0962 C.ar    1  UNL1        0.1773
      5 C         139.9323  138.4556  158.5190 C.ar    1  UNL1        0.1402
      6 N         139.6336  138.7024  159.9681 N.ar    1  UNL1       -0.2089
      7 C         141.3352  141.2126  162.2205 C.3     1  UNL1        0.0233
      8 C         140.7270  140.1258  163.0565 C.3     1  UNL1        0.0955
      9 C         140.4283  140.3725  164.5056 C.3     1  UNL1        0.1149
     10 N         139.8201  139.2857  165.3416 N.pl3   1  UNL1       -0.2586
     11 C         139.5107  137.9522  164.7286 C.3     1  UNL1        0.1167
     12 C         139.8094  137.7054  163.2796 C.3     1  UNL1        0.1151
     13 N         140.4175  138.7922  162.4435 N.pl3   1  UNL1       -0.2764
     14 C         139.5214  139.5325  166.7908 C.ar    1  UNL1        0.3185
     15 N         140.3630  140.3320  167.7408 N.ar    1  UNL1       -0.1701
     16 C         139.6904  140.3168  169.0814 C.ar    1  UNL1        0.2766
     17 N         138.4330  139.5078  168.9600 N.ar    1  UNL1       -0.0499
     18 O         138.3286  139.0231  167.5443 O.2     1  UNL1       -0.3164
     19 C         140.1878  140.9919  170.3251 C.3     1  UNL1        0.4557
     20 F         140.6851  141.6671  171.5688 F       1  UNL1       -0.1631
     21 F         139.3590  142.1995  170.0011 F       1  UNL1       -0.1631
     22 F         141.0166  139.7844  170.6492 F       1  UNL1       -0.1631
     23 O         141.6124  137.8050  156.6471 O.3     1  UNL1       -0.4674
     24 C         142.8098  136.9904  156.2563 C.3     1  UNL1        0.2344
     25 C         142.7244  135.4930  156.2371 C.ar    1  UNL1        0.0486
     26 C         143.6539  134.6777  157.0864 C.ar    1  UNL1        0.0014
     27 C         143.5684  133.1803  157.0671 C.ar    1  UNL1        0.0007
     28 C         142.5534  132.4981  156.1985 C.ar    1  UNL1        0.0388
     29 C         141.6239  133.3134  155.3491 C.ar    1  UNL1        0.0302
     30 C         141.7094  134.8108  155.3684 C.ar    1  UNL1        0.1395
     31 F         140.7799  135.6261  154.5191 F       1  UNL1       -0.2044
     32 C         142.4680  131.0007  156.1792 C.3     1  UNL1        0.2827
     33 S         143.6082  130.1776  156.7010 S.O     1  UNL1        0.0405
     34 C         144.7182  129.7648  155.7804 C.3     1  UNL1        0.3201
     35 O         143.6385  129.7674  158.1435 O.co2   1  UNL1       -0.6809
@<TRIPOS>UNITY_ATOM_ATTR
33 1
charge 1
35 1
charge -1
@<TRIPOS>BOND
     1     8     7    1
     2     8     9    1
     3     9    10    1
     4    10    14    1
     5    14    15   ar
     6    15    16   ar
     7    16    19    1
     8    19    20    1
     9    19    21    1
    10    19    22    1
    11    16    17   ar
    12    17    18   ar
    13    10    11    1
    14    11    12    1
    15    12    13    1
    16    13     1    1
    17     1     2   ar
    18     2     3   ar
    19     3     4   ar
    20     4    23    1
    21    23    24    1
    22    24    25    1
    23    25    26   ar
    24    26    27   ar
    25    27    28   ar
    26    28    32    1
    27    32    33    1
    28    33    34    1
    29    33    35    2
    30    28    29   ar
    31    29    30   ar
    32    30    31    1
    33     4     5   ar
    34     5     6   ar
    35    13     8    1
    36     6     1   ar
    37    18    14   ar
    38    30    25   ar
@<TRIPOS>MOLECULE
*****
 35 38 0 0 0
SMALL
GASTEIGER

@<TRIPOS>ATOM
      1 C         140.0839  140.9338  159.8585 C.ar    1  UNL1        0.2204
      2 N         140.3576  142.3449  159.4299 N.ar    1  UNL1       -0.2089
      3 C         139.7845  143.4904  160.2105 C.ar    1  UNL1        0.1402
      4 C         138.9376  143.2247  161.4198 C.ar    1  UNL1        0.1773
      5 C         138.6640  141.8136  161.8485 C.ar    1  UNL1        0.1402
      6 N         139.2371  140.6681  161.0678 N.ar    1  UNL1       -0.2089
      7 C         142.7571  139.7966  160.6075 C.3     1  UNL1        0.0233
      8 C         141.9937  139.2197  159.4523 C.3     1  UNL1        0.0955
      9 C         142.5668  138.0743  158.6717 C.3     1  UNL1        0.1149
     10 N         141.8033  137.4974  157.5165 N.pl3   1  UNL1       -0.2586
     11 C         140.4668  138.0660  157.1420 C.3     1  UNL1        0.1167
     12 C         139.8937  139.2114  157.9227 C.3     1  UNL1        0.1151
     13 N         140.6571  139.7883  159.0779 N.pl3   1  UNL1       -0.2764
     14 C         142.3765  136.3519  156.7358 C.ar    1  UNL1        0.3185
     15 N         143.1575  135.2028  157.3012 N.ar    1  UNL1       -0.1701
     16 C         143.5329  134.2952  156.1675 C.ar    1  UNL1        0.2766
     17 N         142.9840  134.8834  154.9015 N.ar    1  UNL1       -0.0499
     18 O         142.2693  136.1545  155.2527 O.2     1  UNL1       -0.3164
     19 C         144.3193  133.0228  156.2800 C.3     1  UNL1        0.4557
     20 F         145.1057  131.7504  156.3926 F       1  UNL1       -0.1631
     21 F         143.8887  132.6343  154.8967 F       1  UNL1       -0.1631
     22 F         144.7499  133.4113  157.6634 F       1  UNL1       -0.1631
     23 O         138.3645  144.3702  162.2005 O.3     1  UNL1       -0.4674
     24 C         139.1744  145.0197  163.2832 C.3     1  UNL1        0.2344
     25 C         140.5190  144.4649  163.6493 C.ar    1  UNL1        0.0486
     26 C         141.7592  145.0291  163.0220 C.ar    1  UNL1        0.0014
     27 C         143.1040  144.4742  163.3881 C.ar    1  UNL1        0.0007
     28 C         143.2084  143.3552  164.3815 C.ar    1  UNL1        0.0388
     29 C         141.9681  142.7910  165.0088 C.ar    1  UNL1        0.0302
     30 C         140.6235  143.3458  164.6427 C.ar    1  UNL1        0.1395
     31 F         139.3833  142.7815  165.2700 F       1  UNL1       -0.2044
     32 C         144.5530  142.8004  164.7476 C.3     1  UNL1        0.2827
     33 S         145.0972  141.6091  164.0163 S.O     1  UNL1        0.0405
     34 C         144.6276  140.2303  164.3745 C.3     1  UNL1        0.3201
     35 O         146.1111  141.7966  162.9269 O.co2   1  UNL1       -0.6809
@<TRIPOS>UNITY_ATOM_ATTR
33 1
charge 1
35 1
charge -1
@<TRIPOS>BOND
     1     8     7    1
     2     8     9    1
     3     9    10    1
     4    10    14    1
     5    14    15   ar
     6    15    16   ar
     7    16    19    1
     8    19    20    1
     9    19    21    1
    10    19    22    1
    11    16    17   ar
    12    17    18   ar
    13    10    11    1
    14    11    12    1
    15    12    13    1
    16    13     1    1
    17     1     2   ar
    18     2     3   ar
    19     3     4   ar
    20     4    23    1
    21    23    24    1
    22    24    25    1
    23    25    26   ar
    24    26    27   ar
    25    27    28   ar
    26    28    32    1
    27    32    33    1
    28    33    34    1
    29    33    35    2
    30    28    29   ar
    31    29    30   ar
    32    30    31    1
    33     4     5   ar
    34     5     6   ar
    35    13     8    1
    36     6     1   ar
    37    18    14   ar
    38    30    25   ar
@<TRIPOS>MOLECULE
*****
 35 38 0 0 0
SMALL
GASTEIGER

@<TRIPOS>ATOM
      1 C         141.7131  143.7272  159.4262 C.ar    1  UNL1        0.2204
      2 N         141.6470  145.1337  159.9432 N.ar    1  UNL1       -0.2089
      3 C         140.5841  145.5217  160.9279 C.ar    1  UNL1        0.1402
      4 C         139.5872  144.5031  161.3956 C.ar    1  UNL1        0.1773
      5 C         139.6532  143.0966  160.8786 C.ar    1  UNL1        0.1402
      6 N         140.7162  142.7086  159.8938 N.ar    1  UNL1       -0.2089
      7 C         144.3300  142.6289  160.3986 C.3     1  UNL1        0.0233
      8 C         144.0844  142.7901  158.9277 C.3     1  UNL1        0.0955
      9 C         145.1473  142.4022  157.9429 C.3     1  UNL1        0.1149
     10 N         144.9018  142.5634  156.4720 N.pl3   1  UNL1       -0.2586
     11 C         143.5934  143.1125  155.9857 C.3     1  UNL1        0.1167
     12 C         142.5305  143.5004  156.9705 C.3     1  UNL1        0.1151
     13 N         142.7760  143.3392  158.4414 N.pl3   1  UNL1       -0.2764
     14 C         145.9648  142.1754  155.4872 C.ar    1  UNL1        0.3185
     15 N         147.4240  142.5078  155.5883 N.ar    1  UNL1       -0.1701
     16 C         148.1161  141.9248  154.3921 C.ar    1  UNL1        0.2766
     17 N         147.0847  141.2320  153.5516 N.ar    1  UNL1       -0.0499
     18 O         145.7551  141.3870  154.2285 O.2     1  UNL1       -0.3164
     19 C         149.5823  142.0181  154.0894 C.3     1  UNL1        0.4557
     20 F         151.0485  142.1113  153.7868 F       1  UNL1       -0.1631
     21 F         149.8774  141.0945  155.2340 F       1  UNL1       -0.1631
     22 F         149.2873  142.9416  152.9449 F       1  UNL1       -0.1631
     23 O         138.5243  144.8911  162.3803 O.3     1  UNL1       -0.4674
     24 C         138.8126  144.8464  163.8516 C.3     1  UNL1        0.2344
     25 C         138.9562  143.5257  164.5480 C.ar    1  UNL1        0.0486
     26 C         139.9874  143.3530  165.6236 C.ar    1  UNL1        0.0014
     27 C         140.1309  142.0322  166.3199 C.ar    1  UNL1        0.0007
     28 C         139.2433  140.8841  165.9407 C.ar    1  UNL1        0.0388
     29 C         138.2121  141.0567  164.8651 C.ar    1  UNL1        0.0302
     30 C         138.0685  142.3774  164.1688 C.ar    1  UNL1        0.1395
     31 F         137.0373  142.5501  163.0932 F       1  UNL1       -0.2044
     32 C         139.3868  139.5633  166.6371 C.3     1  UNL1        0.2827
     33 S         138.4272  138.4498  166.3384 S.O     1  UNL1        0.0405
     34 C         138.7600  137.4354  165.2846 C.3     1  UNL1        0.3201
     35 O         137.1350  138.3505  167.0935 O.co2   1  UNL1       -0.6809
@<TRIPOS>UNITY_ATOM_ATTR
33 1
charge 1
35 1
charge -1
@<TRIPOS>BOND
     1     8     7    1
     2     8     9    1
     3     9    10    1
     4    10    14    1
     5    14    15   ar
     6    15    16   ar
     7    16    19    1
     8    19    20    1
     9    19    21    1
    10    19    22    1
    11    16    17   ar
    12    17    18   ar
    13    10    11    1
    14    11    12    1
    15    12    13    1
    16    13     1    1
    17     1     2   ar
    18     2     3   ar
    19     3     4   ar
    20     4    23    1
    21    23    24    1
    22    24    25    1
    23    25    26   ar
    24    26    27   ar
    25    27    28   ar
    26    28    32    1
    27    32    33    1
    28    33    34    1
    29    33    35    2
    30    28    29   ar
    31    29    30   ar
    32    30    31    1
    33     4     5   ar
    34     5     6   ar
    35    13     8    1
    36     6     1   ar
    37    18    14   ar
    38    30    25   ar
@<TRIPOS>MOLECULE
*****
 35 38 0 0 0
SMALL
GASTEIGER

@<TRIPOS>ATOM
      1 C         141.6036  143.6777  159.8105 C.ar    1  UNL1        0.2204
      2 N         141.6143  145.0195  160.4808 N.ar    1  UNL1       -0.2089
      3 C         140.5134  145.3932  161.4286 C.ar    1  UNL1        0.1402
      4 C         139.4018  144.4250  161.7062 C.ar    1  UNL1        0.1773
      5 C         139.3912  143.0831  161.0360 C.ar    1  UNL1        0.1402
      6 N         140.4921  142.7094  160.0881 N.ar    1  UNL1       -0.2089
      7 C         141.1600  143.8607  156.8491 C.3     1  UNL1        0.0233
      8 C         142.4827  143.3956  157.3820 C.3     1  UNL1        0.0955
      9 C         143.5836  143.0219  156.4342 C.3     1  UNL1        0.1149
     10 N         144.9064  142.5567  156.9671 N.pl3   1  UNL1       -0.2586
     11 C         145.1282  142.4652  158.4477 C.3     1  UNL1        0.1167
     12 C         144.0273  142.8388  159.3955 C.3     1  UNL1        0.1151
     13 N         142.7046  143.3040  158.8626 N.pl3   1  UNL1       -0.2764
     14 C         146.0073  142.1831  156.0192 C.ar    1  UNL1        0.3185
     15 N         147.4762  142.2023  156.3224 N.ar    1  UNL1       -0.1701
     16 C         148.2093  141.7557  155.0923 C.ar    1  UNL1        0.2766
     17 N         147.1935  141.4605  154.0288 N.ar    1  UNL1       -0.0499
     18 O         145.8326  141.7247  154.6017 O.2     1  UNL1       -0.3164
     19 C         149.6971  141.6270  154.9506 C.3     1  UNL1        0.4557
     20 F         151.1848  141.4982  154.8088 F       1  UNL1       -0.1631
     21 F         149.8739  142.1247  156.3545 F       1  UNL1       -0.1631
     22 F         149.5202  141.1292  153.5466 F       1  UNL1       -0.1631
     23 O         138.3010  144.7986  162.6541 O.3     1  UNL1       -0.4674
     24 C         137.5968  143.7345  163.4426 C.3     1  UNL1        0.2344
     25 C         138.3638  142.8936  164.4195 C.ar    1  UNL1        0.0486
     26 C         139.3334  143.5385  165.3650 C.ar    1  UNL1        0.0014
     27 C         140.1004  142.6975  166.3419 C.ar    1  UNL1        0.0007
     28 C         139.8979  141.2116  166.3733 C.ar    1  UNL1        0.0388
     29 C         138.9284  140.5666  165.4278 C.ar    1  UNL1        0.0302
     30 C         138.1613  141.4076  164.4509 C.ar    1  UNL1        0.1395
     31 F         137.1917  140.7626  163.5054 F       1  UNL1       -0.2044
     32 C         140.6650  140.3706  167.3502 C.3     1  UNL1        0.2827
     33 S         140.1253  140.1452  168.7315 S.O     1  UNL1        0.0405
     34 C         141.0090  140.3545  169.9254 C.3     1  UNL1        0.3201
     35 O         138.7020  139.7104  168.9189 O.co2   1  UNL1       -0.6809
@<TRIPOS>UNITY_ATOM_ATTR
33 1
charge 1
35 1
charge -1
@<TRIPOS>BOND
     1     8     7    1
     2     8     9    1
     3     9    10    1
     4    10    14    1
     5    14    15   ar
     6    15    16   ar
     7    16    19    1
     8    19    20    1
     9    19    21    1
    10    19    22    1
    11    16    17   ar
    12    17    18   ar
    13    10    11    1
    14    11    12    1
    15    12    13    1
    16    13     1    1
    17     1     2   ar
    18     2     3   ar
    19     3     4   ar
    20     4    23    1
    21    23    24    1
    22    24    25    1
    23    25    26   ar
    24    26    27   ar
    25    27    28   ar
    26    28    32    1
    27    32    33    1
    28    33    34    1
    29    33    35    2
    30    28    29   ar
    31    29    30   ar
    32    30    31    1
    33     4     5   ar
    34     5     6   ar
    35    13     8    1
    36     6     1   ar
    37    18    14   ar
    38    30    25   ar
@<TRIPOS>MOLECULE
*****
 35 38 0 0 0
SMALL
GASTEIGER

@<TRIPOS>ATOM
      1 C         140.3362  140.9191  159.8644 C.ar    1  UNL1        0.2204
      2 N         141.1824  142.0494  160.3706 N.ar    1  UNL1       -0.2089
      3 C         140.5476  143.1871  161.1139 C.ar    1  UNL1        0.1402
      4 C         139.0664  143.1945  161.3511 C.ar    1  UNL1        0.1773
      5 C         138.2202  142.0642  160.8449 C.ar    1  UNL1        0.1402
      6 N         138.8551  140.9264  160.1016 N.ar    1  UNL1       -0.2089
      7 C         142.2159  139.0621  161.2852 C.3     1  UNL1        0.0233
      8 C         141.9110  138.8529  159.8315 C.3     1  UNL1        0.0955
      9 C         142.5458  137.7152  159.0881 C.3     1  UNL1        0.1149
     10 N         142.2409  137.5060  157.6344 N.pl3   1  UNL1       -0.2586
     11 C         141.3011  138.4345  156.9241 C.3     1  UNL1        0.1167
     12 C         140.6662  139.5721  157.6674 C.3     1  UNL1        0.1151
     13 N         140.9712  139.7813  159.1211 N.pl3   1  UNL1       -0.2764
     14 C         142.8758  136.3683  156.8911 C.ar    1  UNL1        0.3185
     15 N         143.2524  135.0371  157.4709 N.ar    1  UNL1       -0.1701
     16 C         143.8550  134.2081  156.3756 C.ar    1  UNL1        0.2766
     17 N         143.8508  135.0270  155.1188 N.ar    1  UNL1       -0.0499
     18 O         143.2457  136.3620  155.4374 O.2     1  UNL1       -0.3164
     19 C         144.3711  132.8064  156.5130 C.3     1  UNL1        0.4557
     20 F         144.8872  131.4047  156.6504 F       1  UNL1       -0.1631
     21 F         143.9123  132.5008  155.1180 F       1  UNL1       -0.1631
     22 F         144.8299  133.1121  157.9080 F       1  UNL1       -0.1631
     23 O         138.4316  144.3322  162.0944 O.3     1  UNL1       -0.4674
     24 C         137.8052  144.0947  163.4364 C.3     1  UNL1        0.2344
     25 C         138.4959  143.2228  164.4427 C.ar    1  UNL1        0.0486
     26 C         139.5197  143.8111  165.3678 C.ar    1  UNL1        0.0014
     27 C         140.2104  142.9391  166.3741 C.ar    1  UNL1        0.0007
     28 C         139.8773  141.4789  166.4554 C.ar    1  UNL1        0.0388
     29 C         138.8534  140.8906  165.5304 C.ar    1  UNL1        0.0302
     30 C         138.1627  141.7625  164.5241 C.ar    1  UNL1        0.1395
     31 F         137.1389  141.1741  163.5991 F       1  UNL1       -0.2044
     32 C         140.5679  140.6070  167.4617 C.3     1  UNL1        0.2827
     33 S         139.9051  140.3050  168.7730 S.O     1  UNL1        0.0405
     34 C         140.5167  140.7936  170.0526 C.3     1  UNL1        0.3201
     35 O         138.6307  139.5146  168.8047 O.co2   1  UNL1       -0.6809
@<TRIPOS>UNITY_ATOM_ATTR
33 1
charge 1
35 1
charge -1
@<TRIPOS>BOND
     1     8     7    1
     2     8     9    1
     3     9    10    1
     4    10    14    1
     5    14    15   ar
     6    15    16   ar
     7    16    19    1
     8    19    20    1
     9    19    21    1
    10    19    22    1
    11    16    17   ar
    12    17    18   ar
    13    10    11    1
    14    11    12    1
    15    12    13    1
    16    13     1    1
    17     1     2   ar
    18     2     3   ar
    19     3     4   ar
    20     4    23    1
    21    23    24    1
    22    24    25    1
    23    25    26   ar
    24    26    27   ar
    25    27    28   ar
    26    28    32    1
    27    32    33    1
    28    33    34    1
    29    33    35    2
    30    28    29   ar
    31    29    30   ar
    32    30    31    1
    33     4     5   ar
    34     5     6   ar
    35    13     8    1
    36     6     1   ar
    37    18    14   ar
    38    30    25   ar
@<TRIPOS>MOLECULE
*****
 35 38 0 0 0
SMALL
GASTEIGER

@<TRIPOS>ATOM
      1 C         140.4043  139.4356  161.2040 C.ar    1  UNL1        0.2204
      2 N         139.3329  138.8385  160.3406 N.ar    1  UNL1       -0.2089
      3 C         139.5557  138.6887  158.8648 C.ar    1  UNL1        0.1402
      4 C         140.8499  139.1361  158.2524 C.ar    1  UNL1        0.1773
      5 C         141.9213  139.7332  159.1159 C.ar    1  UNL1        0.1402
      6 N         141.6985  139.8830  160.5917 N.ar    1  UNL1       -0.2089
      7 C         141.1402  137.2017  163.0664 C.3     1  UNL1        0.0233
      8 C         140.5495  138.4684  163.6110 C.3     1  UNL1        0.0955
      9 C         140.3266  138.6181  165.0868 C.3     1  UNL1        0.1149
     10 N         139.7358  139.8848  165.6314 N.pl3   1  UNL1       -0.2586
     11 C         139.3679  141.0017  164.7002 C.3     1  UNL1        0.1167
     12 C         139.5907  140.8519  163.2245 C.3     1  UNL1        0.1151
     13 N         140.1815  139.5853  162.6799 N.pl3   1  UNL1       -0.2764
     14 C         139.5130  140.0345  167.1072 C.ar    1  UNL1        0.3185
     15 N         140.1972  141.0209  168.0066 N.ar    1  UNL1       -0.1701
     16 C         139.6739  140.8201  169.3979 C.ar    1  UNL1        0.2766
     17 N         138.6662  139.7095  169.3584 N.ar    1  UNL1       -0.0499
     18 O         138.5668  139.2241  167.9427 O.2     1  UNL1       -0.3164
     19 C         140.0859  141.5939  170.6151 C.3     1  UNL1        0.4557
     20 F         140.4978  142.3677  171.8323 F       1  UNL1       -0.1631
     21 F         139.7591  142.8769  169.9100 F       1  UNL1       -0.1631
     22 F         140.4126  140.3109  171.3202 F       1  UNL1       -0.1631
     23 O         141.0727  138.9864  156.7767 O.3     1  UNL1       -0.4674
     24 C         142.4012  138.5166  156.2626 C.3     1  UNL1        0.2344
     25 C         142.6169  137.0635  155.9595 C.ar    1  UNL1        0.0486
     26 C         142.5189  136.5695  154.5466 C.ar    1  UNL1        0.0014
     27 C         142.7346  135.1163  154.2435 C.ar    1  UNL1        0.0007
     28 C         143.0482  134.1572  155.3533 C.ar    1  UNL1        0.0388
     29 C         143.1462  134.6512  156.7662 C.ar    1  UNL1        0.0302
     30 C         142.9305  136.1043  157.0693 C.ar    1  UNL1        0.1395
     31 F         143.0285  136.5984  158.4822 F       1  UNL1       -0.2044
     32 C         143.2639  132.7041  155.0502 C.3     1  UNL1        0.2827
     33 S         143.9327  131.8186  156.0595 S.O     1  UNL1        0.0405
     34 C         143.1097  130.9017  156.9151 C.3     1  UNL1        0.3201
     35 O         145.4244  131.8501  156.2132 O.co2   1  UNL1       -0.6809
@<TRIPOS>UNITY_ATOM_ATTR
33 1
charge 1
35 1
charge -1
@<TRIPOS>BOND
     1     8     7    1
     2     8     9    1
     3     9    10    1
     4    10    14    1
     5    14    15   ar
     6    15    16   ar
     7    16    19    1
     8    19    20    1
     9    19    21    1
    10    19    22    1
    11    16    17   ar
    12    17    18   ar
    13    10    11    1
    14    11    12    1
    15    12    13    1
    16    13     1    1
    17     1     2   ar
    18     2     3   ar
    19     3     4   ar
    20     4    23    1
    21    23    24    1
    22    24    25    1
    23    25    26   ar
    24    26    27   ar
    25    27    28   ar
    26    28    32    1
    27    32    33    1
    28    33    34    1
    29    33    35    2
    30    28    29   ar
    31    29    30   ar
    32    30    31    1
    33     4     5   ar
    34     5     6   ar
    35    13     8    1
    36     6     1   ar
    37    18    14   ar
    38    30    25   ar
