@<TRIPOS>MOLECULE
*****
 33 37 0 0 0
SMALL
GASTEIGER

@<TRIPOS>ATOM
      1 C         141.9647  140.0162  167.2217 C.ar    1  UNL1        0.0327
      2 C         142.9899  139.0159  167.6671 C.ar    1  UNL1        0.1001
      3 N         143.8842  138.3585  166.6582 N.ar    1  UNL1       -0.2420
      4 C         143.7533  138.7014  165.2038 C.ar    1  UNL1        0.1078
      5 C         142.7282  139.7016  164.7583 C.ar    1  UNL1        0.1207
      6 C         141.8339  140.3590  165.7673 C.ar    1  UNL1        0.0583
      7 C         142.5973  140.0445  163.3039 C.2     1  UNL1        0.3780
      8 N         143.4595  141.0087  162.5443 N.2     1  UNL1       -0.0307
      9 C         142.9764  141.0435  161.1247 C.2     1  UNL1        0.2343
     10 C         143.4435  141.8118  159.9240 C.2     1  UNL1        0.0794
     11 C         142.7498  141.6373  158.6056 C.2     1  UNL1        0.1402
     12 F         143.2168  142.4056  157.4049 F       1  UNL1       -0.2044
     13 C         141.5890  140.6946  158.4878 C.2     1  UNL1        0.0125
     14 C         141.1219  139.9264  159.6884 C.3     1  UNL1        0.1060
     15 C         141.8156  140.1008  161.0068 C.2     1  UNL1        0.2179
     16 N         141.5814  139.4834  162.3537 N.2     1  UNL1       -0.0346
     17 N         140.8087  141.3594  165.3218 N.pl3   1  UNL1       -0.3071
     18 C         139.3971  140.9224  165.0639 C.3     1  UNL1        0.0921
     19 C         138.3719  141.9226  164.6185 C.3     1  UNL1        0.0369
     20 C         138.7582  143.3599  164.4309 C.3     1  UNL1        0.0542
     21 N         137.7330  144.3601  163.9855 N.3     1  UNL1       -0.3221
     22 C         140.1698  143.7968  164.6888 C.3     1  UNL1        0.0369
     23 C         141.1950  142.7965  165.1342 C.3     1  UNL1        0.0921
     24 H         136.8351  143.8931  163.8585 H       1  UNL1        0.1188
     25 H         138.0268  144.7780  163.1026 H       1  UNL1        0.1188
     26 C         140.6875  144.1666  170.0753 C.3     1  UNL1        0.0310
     27 C         140.4318  142.7488  169.6574 C.ar    1  UNL1       -0.0222
     28 C         139.2817  141.9885  170.2485 C.ar    1  UNL1       -0.0085
     29 C         139.0259  140.5708  169.8306 C.ar    1  UNL1       -0.0222
     30 C         137.8759  139.8105  170.4216 C.3     1  UNL1        0.0310
     31 C         139.9203  139.9133  168.8217 C.ar    1  UNL1       -0.0042
     32 C         141.0703  140.6736  168.2306 C.ar    1  UNL1        0.0021
     33 C         141.3261  142.0914  168.6485 C.ar    1  UNL1       -0.0042
@<TRIPOS>BOND
     1    26    27    1
     2    27    28   ar
     3    28    29   ar
     4    29    30    1
     5    29    31   ar
     6    31    32   ar
     7    32     1    1
     8     1     2   ar
     9     2     3   ar
    10     3     4   ar
    11     4     5   ar
    12     5     7    1
    13     7     8    2
    14     8     9    1
    15     9    10    2
    16    10    11    1
    17    11    12    1
    18    11    13    2
    19    13    14    1
    20    14    15    1
    21    15    16    2
    22     5     6   ar
    23     6    17    1
    24    17    18    1
    25    18    19    1
    26    19    20    1
    27    20    21    1
    28    20    22    1
    29    22    23    1
    30    32    33   ar
    31    33    27   ar
    32     6     1   ar
    33    23    17    1
    34    16     7    1
    35    15     9    1
    36    21    24    1
    37    21    25    1
@<TRIPOS>MOLECULE
*****
 33 37 0 0 0
SMALL
GASTEIGER

@<TRIPOS>ATOM
      1 C         139.0281  141.6699  163.4291 C.ar    1  UNL1        0.0327
      2 C         137.7768  142.3481  162.9556 C.ar    1  UNL1        0.1001
      3 N         137.6974  142.8834  161.5566 N.ar    1  UNL1       -0.2420
      4 C         138.8692  142.7405  160.6312 C.ar    1  UNL1        0.1078
      5 C         140.1205  142.0623  161.1047 C.ar    1  UNL1        0.1207
      6 C         140.2000  141.5270  162.5037 C.ar    1  UNL1        0.0583
      7 C         141.2924  141.9195  160.1793 C.2     1  UNL1        0.3780
      8 N         142.4763  142.8378  160.1076 N.2     1  UNL1       -0.0307
      9 C         143.4017  142.3191  159.0471 C.2     1  UNL1        0.2343
     10 C         144.7225  142.8148  158.5375 C.2     1  UNL1        0.0794
     11 C         145.4313  142.0716  157.4443 C.2     1  UNL1        0.1402
     12 F         146.7522  142.5674  156.9347 F       1  UNL1       -0.2044
     13 C         144.8193  140.8328  156.8606 C.2     1  UNL1        0.0125
     14 C         143.4985  140.3370  157.3702 C.3     1  UNL1        0.1060
     15 C         142.7897  141.0802  158.4634 C.2     1  UNL1        0.2179
     16 N         141.4861  140.8332  159.1632 N.2     1  UNL1       -0.0346
     17 N         141.4513  140.8488  162.9773 N.pl3   1  UNL1       -0.3071
     18 C         141.5810  139.3579  162.8752 C.3     1  UNL1        0.0921
     19 C         142.8322  138.6797  163.3487 C.3     1  UNL1        0.0369
     20 C         143.9539  139.4923  163.9244 C.3     1  UNL1        0.0542
     21 N         145.2052  138.8141  164.3980 N.3     1  UNL1       -0.3221
     22 C         143.8243  140.9832  164.0266 C.3     1  UNL1        0.0369
     23 C         142.5730  141.6615  163.5530 C.3     1  UNL1        0.0921
     24 H         145.1216  137.8077  164.2544 H       1  UNL1        0.1188
     25 H         145.3410  139.0058  165.3906 H       1  UNL1        0.1188
     26 C         137.6647  138.1247  166.9749 C.3     1  UNL1        0.0310
     27 C         138.4259  139.3619  166.6010 C.ar    1  UNL1       -0.0222
     28 C         139.2666  140.0638  167.6260 C.ar    1  UNL1       -0.0085
     29 C         140.0278  141.3010  167.2521 C.ar    1  UNL1       -0.0222
     30 C         140.8685  142.0029  168.2770 C.3     1  UNL1        0.0310
     31 C         139.9483  141.8364  165.8531 C.ar    1  UNL1       -0.0042
     32 C         139.1076  141.1345  164.8281 C.ar    1  UNL1        0.0021
     33 C         138.3465  139.8973  165.2020 C.ar    1  UNL1       -0.0042
@<TRIPOS>BOND
     1    26    27    1
     2    27    28   ar
     3    28    29   ar
     4    29    30    1
     5    29    31   ar
     6    31    32   ar
     7    32     1    1
     8     1     2   ar
     9     2     3   ar
    10     3     4   ar
    11     4     5   ar
    12     5     7    1
    13     7     8    2
    14     8     9    1
    15     9    10    2
    16    10    11    1
    17    11    12    1
    18    11    13    2
    19    13    14    1
    20    14    15    1
    21    15    16    2
    22     5     6   ar
    23     6    17    1
    24    17    18    1
    25    18    19    1
    26    19    20    1
    27    20    21    1
    28    20    22    1
    29    22    23    1
    30    32    33   ar
    31    33    27   ar
    32     6     1   ar
    33    23    17    1
    34    16     7    1
    35    15     9    1
    36    21    24    1
    37    21    25    1
@<TRIPOS>MOLECULE
*****
 33 37 0 0 0
SMALL
GASTEIGER

@<TRIPOS>ATOM
      1 C         139.0067  141.6705  163.4494 C.ar    1  UNL1        0.0327
      2 C         137.7543  142.3506  162.9815 C.ar    1  UNL1        0.1001
      3 N         137.6721  142.8927  161.5853 N.ar    1  UNL1       -0.2420
      4 C         138.8423  142.7547  160.6571 C.ar    1  UNL1        0.1078
      5 C         140.0947  142.0746  161.1250 C.ar    1  UNL1        0.1207
      6 C         140.1769  141.5326  162.5212 C.ar    1  UNL1        0.0583
      7 C         141.2649  141.9366  160.1968 C.2     1  UNL1        0.3780
      8 N         142.4582  142.8439  160.1414 N.2     1  UNL1       -0.0307
      9 C         143.3780  142.3352  159.0713 C.2     1  UNL1        0.2343
     10 C         144.7038  142.8265  158.5705 C.2     1  UNL1        0.0794
     11 C         145.4048  142.0962  157.4636 C.2     1  UNL1        0.1402
     12 F         146.7306  142.5875  156.9627 F       1  UNL1       -0.2044
     13 C         144.7801  140.8745  156.8577 C.2     1  UNL1        0.0125
     14 C         143.4543  140.3831  157.3585 C.3     1  UNL1        0.1060
     15 C         142.7533  141.1135  158.4654 C.2     1  UNL1        0.2179
     16 N         141.4473  140.8672  159.1609 N.2     1  UNL1       -0.0346
     17 N         141.4294  140.8525  162.9892 N.pl3   1  UNL1       -0.3071
     18 C         141.5626  139.3630  162.8721 C.3     1  UNL1        0.0921
     19 C         142.8149  138.6829  163.3401 C.3     1  UNL1        0.0369
     20 C         143.9341  139.4923  163.9252 C.3     1  UNL1        0.0542
     21 N         145.1865  138.8122  164.3932 N.3     1  UNL1       -0.3221
     22 C         143.8009  140.9818  164.0423 C.3     1  UNL1        0.0369
     23 C         142.5485  141.6619  163.5743 C.3     1  UNL1        0.0921
     24 H         145.1054  137.8071  164.2393 H       1  UNL1        0.1188
     25 H         145.3209  138.9942  165.3878 H       1  UNL1        0.1188
     26 C         140.8918  141.9548  168.2833 C.3     1  UNL1        0.0310
     27 C         140.0315  141.2706  167.2626 C.ar    1  UNL1       -0.0222
     28 C         139.2535  140.0443  167.6381 C.ar    1  UNL1       -0.0085
     29 C         138.3932  139.3601  166.6174 C.ar    1  UNL1       -0.0222
     30 C         137.6152  138.1339  166.9929 C.3     1  UNL1        0.0310
     31 C         138.3110  139.9022  165.2212 C.ar    1  UNL1       -0.0042
     32 C         139.0890  141.1284  164.8457 C.ar    1  UNL1        0.0021
     33 C         139.9492  141.8126  165.8664 C.ar    1  UNL1       -0.0042
@<TRIPOS>BOND
     1    26    27    1
     2    27    28   ar
     3    28    29   ar
     4    29    30    1
     5    29    31   ar
     6    31    32   ar
     7    32     1    1
     8     1     2   ar
     9     2     3   ar
    10     3     4   ar
    11     4     5   ar
    12     5     7    1
    13     7     8    2
    14     8     9    1
    15     9    10    2
    16    10    11    1
    17    11    12    1
    18    11    13    2
    19    13    14    1
    20    14    15    1
    21    15    16    2
    22     5     6   ar
    23     6    17    1
    24    17    18    1
    25    18    19    1
    26    19    20    1
    27    20    21    1
    28    20    22    1
    29    22    23    1
    30    32    33   ar
    31    33    27   ar
    32     6     1   ar
    33    23    17    1
    34    16     7    1
    35    15     9    1
    36    21    24    1
    37    21    25    1
@<TRIPOS>MOLECULE
*****
 33 37 0 0 0
SMALL
GASTEIGER

@<TRIPOS>ATOM
      1 C         139.5638  142.1992  162.0366 C.ar    1  UNL1        0.0327
      2 C         138.0649  142.2398  162.0774 C.ar    1  UNL1        0.1001
      3 N         137.3453  142.0731  163.3829 N.ar    1  UNL1       -0.2420
      4 C         138.1247  141.8658  164.6477 C.ar    1  UNL1        0.1078
      5 C         139.6235  141.8253  164.6070 C.ar    1  UNL1        0.1207
      6 C         140.3431  141.9920  163.3015 C.ar    1  UNL1        0.0583
      7 C         140.4028  141.6180  165.8718 C.2     1  UNL1        0.3780
      8 N         140.6754  140.2998  166.5335 N.2     1  UNL1       -0.0307
      9 C         141.4874  140.5596  167.7676 C.2     1  UNL1        0.2343
     10 C         142.0476  139.6407  168.8124 C.2     1  UNL1        0.0794
     11 C         142.8372  140.2007  169.9582 C.2     1  UNL1        0.1402
     12 F         143.3974  139.2817  171.0031 F       1  UNL1       -0.2044
     13 C         143.0665  141.6796  170.0593 C.2     1  UNL1        0.0125
     14 C         142.5063  142.5985  169.0145 C.3     1  UNL1        0.1060
     15 C         141.7168  142.0386  167.8686 C.2     1  UNL1        0.2179
     16 N         141.0465  142.6926  166.6969 N.2     1  UNL1       -0.0346
     17 N         141.8420  141.9515  163.2607 N.pl3   1  UNL1       -0.3071
     18 C         142.5532  140.6383  163.1196 C.3     1  UNL1        0.0921
     19 C         144.0521  140.5978  163.0789 C.3     1  UNL1        0.0369
     20 C         144.8398  141.8704  163.1792 C.3     1  UNL1        0.0542
     21 N         146.3387  141.8298  163.1384 N.3     1  UNL1       -0.3221
     22 C         144.1287  143.1835  163.3202 C.3     1  UNL1        0.0369
     23 C         142.6297  143.2240  163.3610 C.3     1  UNL1        0.0921
     24 H         146.6501  140.8635  163.0399 H       1  UNL1        0.1188
     25 H         146.7131  142.2212  164.0028 H       1  UNL1        0.1188
     26 C         141.6361  145.2808  158.4021 C.3     1  UNL1        0.0310
     27 C         141.3195  143.9067  158.9139 C.ar    1  UNL1       -0.0222
     28 C         141.7227  142.6995  158.1201 C.ar    1  UNL1       -0.0085
     29 C         141.4061  141.3254  158.6318 C.ar    1  UNL1       -0.0222
     30 C         141.8092  140.1182  157.8381 C.3     1  UNL1        0.0310
     31 C         140.6865  141.1587  159.9374 C.ar    1  UNL1       -0.0042
     32 C         140.2834  142.3660  160.7311 C.ar    1  UNL1        0.0021
     33 C         140.5999  143.7400  160.2193 C.ar    1  UNL1       -0.0042
@<TRIPOS>BOND
     1    26    27    1
     2    27    28   ar
     3    28    29   ar
     4    29    30    1
     5    29    31   ar
     6    31    32   ar
     7    32     1    1
     8     1     2   ar
     9     2     3   ar
    10     3     4   ar
    11     4     5   ar
    12     5     7    1
    13     7     8    2
    14     8     9    1
    15     9    10    2
    16    10    11    1
    17    11    12    1
    18    11    13    2
    19    13    14    1
    20    14    15    1
    21    15    16    2
    22     5     6   ar
    23     6    17    1
    24    17    18    1
    25    18    19    1
    26    19    20    1
    27    20    21    1
    28    20    22    1
    29    22    23    1
    30    32    33   ar
    31    33    27   ar
    32     6     1   ar
    33    23    17    1
    34    16     7    1
    35    15     9    1
    36    21    24    1
    37    21    25    1
@<TRIPOS>MOLECULE
*****
 33 37 0 0 0
SMALL
GASTEIGER

@<TRIPOS>ATOM
      1 C         139.6538  140.5861  167.8064 C.ar    1  UNL1        0.0327
      2 C         138.7527  139.6236  168.5217 C.ar    1  UNL1        0.1001
      3 N         137.9354  138.6388  167.7394 N.ar    1  UNL1       -0.2420
      4 C         138.0191  138.6164  166.2419 C.ar    1  UNL1        0.1078
      5 C         138.9202  139.5789  165.5267 C.ar    1  UNL1        0.1207
      6 C         139.7376  140.5638  166.3089 C.ar    1  UNL1        0.0583
      7 C         139.0040  139.5565  164.0292 C.2     1  UNL1        0.3780
      8 N         138.0491  140.2215  163.0827 N.2     1  UNL1       -0.0307
      9 C         138.5123  139.9412  161.6838 C.2     1  UNL1        0.2343
     10 C         137.9642  140.3410  160.3460 C.2     1  UNL1        0.0794
     11 C         138.6573  139.9025  159.0901 C.2     1  UNL1        0.1402
     12 F         138.1093  140.3023  157.7522 F       1  UNL1       -0.2044
     13 C         139.8986  139.0643  159.1721 C.2     1  UNL1        0.0125
     14 C         140.4466  138.6645  160.5099 C.3     1  UNL1        0.1060
     15 C         139.7535  139.1030  161.7657 C.2     1  UNL1        0.2179
     16 N         140.0574  138.8653  163.2153 N.2     1  UNL1       -0.0346
     17 N         140.6387  141.5263  165.5937 N.pl3   1  UNL1       -0.3071
     18 C         140.1369  142.8911  165.2253 C.3     1  UNL1        0.0921
     19 C         141.0380  143.8536  164.5101 C.3     1  UNL1        0.0369
     20 C         142.4409  143.4514  164.1633 C.3     1  UNL1        0.0542
     21 N         143.3420  144.4140  163.4481 N.3     1  UNL1       -0.3221
     22 C         142.9427  142.0867  164.5317 C.3     1  UNL1        0.0369
     23 C         142.0415  141.1242  165.2470 C.3     1  UNL1        0.0921
     24 H         142.8412  145.2862  163.2780 H       1  UNL1        0.1188
     25 H         143.6331  144.0099  162.5580 H       1  UNL1        0.1188
     26 C         144.1895  142.0087  169.9050 C.3     1  UNL1        0.0310
     27 C         142.7390  142.2823  169.6379 C.ar    1  UNL1       -0.0222
     28 C         142.1060  143.5409  170.1532 C.ar    1  UNL1       -0.0085
     29 C         140.6555  143.8145  169.8861 C.ar    1  UNL1       -0.0222
     30 C         140.0224  145.0729  170.4013 C.3     1  UNL1        0.0310
     31 C         139.8381  142.8295  169.1039 C.ar    1  UNL1       -0.0042
     32 C         140.4712  141.5711  168.5887 C.ar    1  UNL1        0.0021
     33 C         141.9216  141.2975  168.8557 C.ar    1  UNL1       -0.0042
@<TRIPOS>BOND
     1    26    27    1
     2    27    28   ar
     3    28    29   ar
     4    29    30    1
     5    29    31   ar
     6    31    32   ar
     7    32     1    1
     8     1     2   ar
     9     2     3   ar
    10     3     4   ar
    11     4     5   ar
    12     5     7    1
    13     7     8    2
    14     8     9    1
    15     9    10    2
    16    10    11    1
    17    11    12    1
    18    11    13    2
    19    13    14    1
    20    14    15    1
    21    15    16    2
    22     5     6   ar
    23     6    17    1
    24    17    18    1
    25    18    19    1
    26    19    20    1
    27    20    21    1
    28    20    22    1
    29    22    23    1
    30    32    33   ar
    31    33    27   ar
    32     6     1   ar
    33    23    17    1
    34    16     7    1
    35    15     9    1
    36    21    24    1
    37    21    25    1
@<TRIPOS>MOLECULE
*****
 33 37 0 0 0
SMALL
GASTEIGER

@<TRIPOS>ATOM
      1 C         139.6391  140.5716  167.8494 C.ar    1  UNL1        0.0327
      2 C         138.7293  139.6233  168.5727 C.ar    1  UNL1        0.1001
      3 N         137.9063  138.6365  167.7990 N.ar    1  UNL1       -0.2420
      4 C         137.9929  138.5979  166.3020 C.ar    1  UNL1        0.1078
      5 C         138.9026  139.5461  165.5787 C.ar    1  UNL1        0.1207
      6 C         139.7257  140.5330  166.3524 C.ar    1  UNL1        0.0583
      7 C         138.9892  139.5075  164.0817 C.2     1  UNL1        0.3780
      8 N         140.0363  138.7958  163.2772 N.2     1  UNL1       -0.0307
      9 C         139.7382  139.0223  161.8247 C.2     1  UNL1        0.2343
     10 C         140.4289  138.5630  160.5749 C.2     1  UNL1        0.0794
     11 C         139.8883  138.9554  159.2319 C.2     1  UNL1        0.1402
     12 F         140.5789  138.4961  157.9820 F       1  UNL1       -0.2044
     13 C         138.6570  139.8070  159.1386 C.2     1  UNL1        0.0125
     14 C         137.9663  140.2662  160.3884 C.3     1  UNL1        0.1060
     15 C         138.5069  139.8739  161.7314 C.2     1  UNL1        0.2179
     16 N         138.0441  140.1738  163.1264 N.2     1  UNL1       -0.0346
     17 N         140.6355  141.4812  165.6291 N.pl3   1  UNL1       -0.3071
     18 C         142.0355  141.0645  165.2883 C.3     1  UNL1        0.0921
     19 C         142.9453  142.0127  164.5650 C.3     1  UNL1        0.0369
     20 C         142.4550  143.3777  164.1825 C.3     1  UNL1        0.0542
     21 N         143.3648  144.3260  163.4592 N.3     1  UNL1       -0.3221
     22 C         141.0550  143.7945  164.5233 C.3     1  UNL1        0.0369
     23 C         140.1452  142.8462  165.2466 C.3     1  UNL1        0.0921
     24 H         144.2707  143.8813  163.3107 H       1  UNL1        0.1188
     25 H         143.4881  145.1710  164.0170 H       1  UNL1        0.1188
     26 C         140.0372  145.0848  170.3934 C.3     1  UNL1        0.0310
     27 C         140.6612  143.8151  169.8951 C.ar    1  UNL1       -0.0222
     28 C         142.1084  143.5323  170.1704 C.ar    1  UNL1       -0.0085
     29 C         142.7325  142.2625  169.6721 C.ar    1  UNL1       -0.0222
     30 C         144.1796  141.9797  169.9473 C.3     1  UNL1        0.0310
     31 C         141.9093  141.2756  168.8984 C.ar    1  UNL1       -0.0042
     32 C         140.4622  141.5585  168.6231 C.ar    1  UNL1        0.0021
     33 C         139.8382  142.8282  169.1214 C.ar    1  UNL1       -0.0042
@<TRIPOS>BOND
     1    26    27    1
     2    27    28   ar
     3    28    29   ar
     4    29    30    1
     5    29    31   ar
     6    31    32   ar
     7    32     1    1
     8     1     2   ar
     9     2     3   ar
    10     3     4   ar
    11     4     5   ar
    12     5     7    1
    13     7     8    2
    14     8     9    1
    15     9    10    2
    16    10    11    1
    17    11    12    1
    18    11    13    2
    19    13    14    1
    20    14    15    1
    21    15    16    2
    22     5     6   ar
    23     6    17    1
    24    17    18    1
    25    18    19    1
    26    19    20    1
    27    20    21    1
    28    20    22    1
    29    22    23    1
    30    32    33   ar
    31    33    27   ar
    32     6     1   ar
    33    23    17    1
    34    16     7    1
    35    15     9    1
    36    21    24    1
    37    21    25    1
@<TRIPOS>MOLECULE
*****
 33 37 0 0 0
SMALL
GASTEIGER

@<TRIPOS>ATOM
      1 C         139.5456  142.3826  161.8000 C.ar    1  UNL1        0.0327
      2 C         138.0479  142.4603  161.7690 C.ar    1  UNL1        0.1001
      3 N         137.2630  142.3146  163.0389 N.ar    1  UNL1       -0.2420
      4 C         137.9757  142.0912  164.3397 C.ar    1  UNL1        0.1078
      5 C         139.4734  142.0134  164.3706 C.ar    1  UNL1        0.1207
      6 C         140.2583  142.1591  163.1008 C.ar    1  UNL1        0.0583
      7 C         140.1861  141.7900  165.6715 C.2     1  UNL1        0.3780
      8 N         140.6929  140.4747  166.1846 N.2     1  UNL1       -0.0307
      9 C         141.3371  140.7144  167.5178 C.2     1  UNL1        0.2343
     10 C         142.0087  139.7892  168.4888 C.2     1  UNL1        0.0794
     11 C         142.5716  140.3274  169.7708 C.2     1  UNL1        0.1402
     12 F         143.2431  139.4022  170.7419 F       1  UNL1       -0.2044
     13 C         142.4629  141.7908  170.0817 C.2     1  UNL1        0.0125
     14 C         141.7914  142.7160  169.1107 C.3     1  UNL1        0.1060
     15 C         141.2285  142.1778  167.8287 C.2     1  UNL1        0.2179
     16 N         140.5171  142.8425  166.6876 N.2     1  UNL1       -0.0346
     17 N         141.7560  142.0813  163.1317 N.pl3   1  UNL1       -0.3071
     18 C         142.5687  143.3315  163.2946 C.3     1  UNL1        0.0921
     19 C         144.0663  143.2538  163.3255 C.3     1  UNL1        0.0369
     20 C         144.7514  141.9259  163.1935 C.3     1  UNL1        0.0542
     21 N         146.2490  141.8482  163.2244 N.3     1  UNL1       -0.3221
     22 C         143.9387  140.6757  163.0305 C.3     1  UNL1        0.0369
     23 C         142.4409  140.7535  162.9996 C.3     1  UNL1        0.0921
     24 H         146.6357  142.7848  163.3406 H       1  UNL1        0.1188
     25 H         146.5868  141.4470  162.3495 H       1  UNL1        0.1188
     26 C         142.0670  140.2340  157.7967 C.3     1  UNL1        0.0310
     27 C         141.5913  141.4540  158.5284 C.ar    1  UNL1       -0.0222
     28 C         141.9006  142.8196  157.9903 C.ar    1  UNL1       -0.0085
     29 C         141.4249  144.0395  158.7220 C.ar    1  UNL1       -0.0222
     30 C         141.7341  145.4050  158.1840 C.3     1  UNL1        0.0310
     31 C         140.6398  143.8938  159.9920 C.ar    1  UNL1       -0.0042
     32 C         140.3306  142.5282  160.5300 C.ar    1  UNL1        0.0021
     33 C         140.8063  141.3083  159.7983 C.ar    1  UNL1       -0.0042
@<TRIPOS>BOND
     1    26    27    1
     2    27    28   ar
     3    28    29   ar
     4    29    30    1
     5    29    31   ar
     6    31    32   ar
     7    32     1    1
     8     1     2   ar
     9     2     3   ar
    10     3     4   ar
    11     4     5   ar
    12     5     7    1
    13     7     8    2
    14     8     9    1
    15     9    10    2
    16    10    11    1
    17    11    12    1
    18    11    13    2
    19    13    14    1
    20    14    15    1
    21    15    16    2
    22     5     6   ar
    23     6    17    1
    24    17    18    1
    25    18    19    1
    26    19    20    1
    27    20    21    1
    28    20    22    1
    29    22    23    1
    30    32    33   ar
    31    33    27   ar
    32     6     1   ar
    33    23    17    1
    34    16     7    1
    35    15     9    1
    36    21    24    1
    37    21    25    1
@<TRIPOS>MOLECULE
*****
 33 37 0 0 0
SMALL
GASTEIGER

@<TRIPOS>ATOM
      1 C         141.1086  139.2594  162.2475 C.ar    1  UNL1        0.0327
      2 C         141.1684  137.7663  162.3776 C.ar    1  UNL1        0.1001
      3 N         141.3403  137.1376  163.7286 N.ar    1  UNL1       -0.2420
      4 C         141.4523  138.0019  164.9494 C.ar    1  UNL1        0.1078
      5 C         141.3925  139.4950  164.8192 C.ar    1  UNL1        0.1207
      6 C         141.2206  140.1238  163.4683 C.ar    1  UNL1        0.0583
      7 C         141.5046  140.3594  166.0400 C.2     1  UNL1        0.3780
      8 N         142.7737  140.7103  166.7584 N.2     1  UNL1       -0.0307
      9 C         142.4207  141.5924  167.9192 C.2     1  UNL1        0.2343
     10 C         143.2614  142.2437  168.9769 C.2     1  UNL1        0.0794
     11 C         142.6148  143.0894  170.0336 C.2     1  UNL1        0.1402
     12 F         143.4555  143.7408  171.0914 F       1  UNL1       -0.2044
     13 C         141.1274  143.2837  170.0326 C.2     1  UNL1        0.0125
     14 C         140.2867  142.6323  168.9748 C.3     1  UNL1        0.1060
     15 C         140.9333  141.7866  167.9181 C.2     1  UNL1        0.2179
     16 N         140.3672  141.0246  166.7568 N.2     1  UNL1       -0.0346
     17 N         141.1608  141.6170  163.3381 N.pl3   1  UNL1       -0.3071
     18 C         139.8350  142.3185  163.3516 C.3     1  UNL1        0.0921
     19 C         139.7751  143.8116  163.2214 C.3     1  UNL1        0.0369
     20 C         141.0411  144.6033  163.0777 C.3     1  UNL1        0.0542
     21 N         140.9813  146.0964  162.9475 N.3     1  UNL1       -0.3221
     22 C         142.3669  143.9018  163.0642 C.3     1  UNL1        0.0369
     23 C         142.4268  142.4086  163.1944 C.3     1  UNL1        0.0921
     24 H         140.0084  146.4014  162.9762 H       1  UNL1        0.1188
     25 H         141.3997  146.3774  162.0608 H       1  UNL1        0.1188
     26 C         143.1657  141.4594  158.0133 C.3     1  UNL1        0.0310
     27 C         141.9653  140.9883  158.7795 C.ar    1  UNL1       -0.0222
     28 C         140.5930  141.1459  158.1946 C.ar    1  UNL1       -0.0085
     29 C         139.3926  140.6748  158.9608 C.ar    1  UNL1       -0.0222
     30 C         138.0203  140.8325  158.3760 C.3     1  UNL1        0.0310
     31 C         139.5644  140.0460  160.3117 C.ar    1  UNL1       -0.0042
     32 C         140.9367  139.8883  160.8965 C.ar    1  UNL1        0.0021
     33 C         142.1371  140.3594  160.1304 C.ar    1  UNL1       -0.0042
@<TRIPOS>BOND
     1    26    27    1
     2    27    28   ar
     3    28    29   ar
     4    29    30    1
     5    29    31   ar
     6    31    32   ar
     7    32     1    1
     8     1     2   ar
     9     2     3   ar
    10     3     4   ar
    11     4     5   ar
    12     5     7    1
    13     7     8    2
    14     8     9    1
    15     9    10    2
    16    10    11    1
    17    11    12    1
    18    11    13    2
    19    13    14    1
    20    14    15    1
    21    15    16    2
    22     5     6   ar
    23     6    17    1
    24    17    18    1
    25    18    19    1
    26    19    20    1
    27    20    21    1
    28    20    22    1
    29    22    23    1
    30    32    33   ar
    31    33    27   ar
    32     6     1   ar
    33    23    17    1
    34    16     7    1
    35    15     9    1
    36    21    24    1
    37    21    25    1
@<TRIPOS>MOLECULE
*****
 33 37 0 0 0
SMALL
GASTEIGER

@<TRIPOS>ATOM
      1 C         143.3005  141.1089  161.8716 C.ar    1  UNL1        0.0327
      2 C         144.8000  141.0783  161.8939 C.ar    1  UNL1        0.1001
      3 N         145.5318  141.1258  163.2024 N.ar    1  UNL1       -0.2420
      4 C         144.7640  141.2040  164.4886 C.ar    1  UNL1        0.1078
      5 C         143.2646  141.2347  164.4664 C.ar    1  UNL1        0.1207
      6 C         142.5328  141.1872  163.1579 C.ar    1  UNL1        0.0583
      7 C         142.4968  141.3129  165.7527 C.2     1  UNL1        0.3780
      8 N         142.0094  142.5681  166.4136 N.2     1  UNL1       -0.0307
      9 C         141.2931  142.1806  167.6733 C.2     1  UNL1        0.2343
     10 C         140.6059  142.9957  168.7284 C.2     1  UNL1        0.0794
     11 C         139.9634  142.3161  169.9011 C.2     1  UNL1        0.1402
     12 F         139.2762  143.1312  170.9563 F       1  UNL1       -0.2044
     13 C         140.0081  140.8214  170.0187 C.2     1  UNL1        0.0125
     14 C         140.6952  140.0063  168.9635 C.3     1  UNL1        0.1060
     15 C         141.3378  140.6859  167.7908 C.2     1  UNL1        0.2179
     16 N         142.0817  140.1497  166.6038 N.2     1  UNL1       -0.0346
     17 N         141.0332  141.2178  163.1356 N.pl3   1  UNL1       -0.3071
     18 C         140.2559  139.9362  163.1931 C.3     1  UNL1        0.0921
     19 C         138.7564  139.9668  163.1708 C.3     1  UNL1        0.0369
     20 C         138.0341  141.2791  163.0911 C.3     1  UNL1        0.0542
     21 N         136.5347  141.3097  163.0688 N.3     1  UNL1       -0.3221
     22 C         138.8114  142.5607  163.0336 C.3     1  UNL1        0.0369
     23 C         140.3110  142.5301  163.0559 C.3     1  UNL1        0.0921
     24 H         136.1744  140.3566  163.1145 H       1  UNL1        0.1188
     25 H         136.2164  141.7525  162.2068 H       1  UNL1        0.1188
     26 C         141.0608  138.3713  158.0652 C.3     1  UNL1        0.0310
     27 C         141.4488  139.6925  158.6599 C.ar    1  UNL1       -0.0222
     28 C         141.1050  140.9663  157.9461 C.ar    1  UNL1       -0.0085
     29 C         141.4930  142.2875  158.5408 C.ar    1  UNL1       -0.0222
     30 C         141.1492  143.5612  157.8270 C.3     1  UNL1        0.0310
     31 C         142.2249  142.3351  159.8493 C.ar    1  UNL1       -0.0042
     32 C         142.5687  141.0614  160.5631 C.ar    1  UNL1        0.0021
     33 C         142.1806  139.7401  159.9684 C.ar    1  UNL1       -0.0042
@<TRIPOS>BOND
     1    26    27    1
     2    27    28   ar
     3    28    29   ar
     4    29    30    1
     5    29    31   ar
     6    31    32   ar
     7    32     1    1
     8     1     2   ar
     9     2     3   ar
    10     3     4   ar
    11     4     5   ar
    12     5     7    1
    13     7     8    2
    14     8     9    1
    15     9    10    2
    16    10    11    1
    17    11    12    1
    18    11    13    2
    19    13    14    1
    20    14    15    1
    21    15    16    2
    22     5     6   ar
    23     6    17    1
    24    17    18    1
    25    18    19    1
    26    19    20    1
    27    20    21    1
    28    20    22    1
    29    22    23    1
    30    32    33   ar
    31    33    27   ar
    32     6     1   ar
    33    23    17    1
    34    16     7    1
    35    15     9    1
    36    21    24    1
    37    21    25    1
