@<TRIPOS>MOLECULE
*****
 26 27 0 0 0
SMALL
GASTEIGER

@<TRIPOS>ATOM
      1 C         138.9363  145.2626  162.6485 C.cat   1  UNL1        0.3840
      2 N         139.3626  146.1638  161.5277 N.pl3   1  UNL1       -0.1293
      3 H         140.1383  146.7590  161.6425 H       1  UNL1        0.3062
      4 N         139.6921  145.2681  163.9442 N.pl3   1  UNL1       -0.2424
      5 H         139.3189  145.7295  164.7297 H       1  UNL1        0.2649
      6 C         143.6652  143.1760  164.2405 C.ar    1  UNL1        0.1389
      7 C         142.3979  142.4210  164.5125 C.ar    1  UNL1        0.0398
      8 C         141.0735  143.1184  164.4137 C.ar    1  UNL1        0.0365
      9 C         141.0165  144.5707  164.0430 C.ar    1  UNL1        0.1170
     10 C         142.2838  145.3257  163.7710 C.ar    1  UNL1        0.0365
     11 C         143.6081  144.6283  163.8698 C.ar    1  UNL1        0.0398
     12 C         145.0685  140.9908  164.1657 C.3     1  UNL1        0.2525
     13 O         144.9895  142.4786  164.3393 O.3     1  UNL1       -0.4714
     14 N         137.7543  144.3558  162.4736 N.pl3   1  UNL1       -0.2619
     15 H         136.8436  144.7297  162.4678 H       1  UNL1        0.2588
     16 C         137.9599  142.8792  162.3076 C.3     1  UNL1        0.1778
     17 C         137.3089  141.9196  163.2591 C.3     1  UNL1        0.0901
     18 C         138.0134  140.6532  163.6463 C.3     1  UNL1        0.2090
     19 O         138.2643  140.3467  165.0930 O.3     1  UNL1       -0.4753
     20 C         139.6280  139.9122  165.5421 C.ar    1  UNL1        0.1387
     21 C         140.1391  140.3220  166.8915 C.ar    1  UNL1        0.0392
     22 C         141.5028  139.8875  167.3405 C.ar    1  UNL1        0.0327
     23 C         142.3553  139.0433  166.4401 C.ar    1  UNL1        0.1403
     24 F         143.7190  138.6088  166.8892 F       1  UNL1       -0.2042
     25 C         141.8441  138.6336  165.0908 C.ar    1  UNL1        0.0327
     26 C         140.4805  139.0680  164.6418 C.ar    1  UNL1        0.0392
@<TRIPOS>BOND
     1    12    13    1
     2    13     6    1
     3     6     7   ar
     4     7     8   ar
     5     8     9   ar
     6     9     4    1
     7     4     1    1
     8     1     2    2
     9     1    14    1
    10    14    16    1
    11    16    17    1
    12    17    18    1
    13    18    19    1
    14    19    20    1
    15    20    21   ar
    16    21    22   ar
    17    22    23   ar
    18    23    24    1
    19    23    25   ar
    20    25    26   ar
    21     9    10   ar
    22    10    11   ar
    23    11     6   ar
    24    26    20   ar
    25     4     5    1
    26     2     3    1
    27    14    15    1
@<TRIPOS>MOLECULE
*****
 26 27 0 0 0
SMALL
GASTEIGER

@<TRIPOS>ATOM
      1 C         139.1222  145.4088  162.5521 C.cat   1  UNL1        0.3840
      2 N         139.5425  146.1575  161.3221 N.pl3   1  UNL1       -0.1293
      3 H         138.9719  146.1461  160.5198 H       1  UNL1        0.3062
      4 N         137.8327  144.6427  162.5598 N.pl3   1  UNL1       -0.2424
      5 H         136.9782  145.1183  162.6738 H       1  UNL1        0.2649
      6 C         137.8694  140.1705  162.0619 C.ar    1  UNL1        0.1389
      7 C         137.4906  140.7751  163.3813 C.ar    1  UNL1        0.0398
      8 C         137.4784  142.2659  163.5472 C.ar    1  UNL1        0.0365
      9 C         137.8449  143.1520  162.3938 C.ar    1  UNL1        0.1170
     10 C         138.2237  142.5473  161.0744 C.ar    1  UNL1        0.0365
     11 C         138.2359  141.0566  160.9084 C.ar    1  UNL1        0.0398
     12 C         138.9874  138.0198  161.1267 C.3     1  UNL1        0.2525
     13 O         137.8816  138.6797  161.8959 O.3     1  UNL1       -0.4714
     14 N         139.9915  145.4262  163.7744 N.pl3   1  UNL1       -0.2619
     15 H         139.8733  146.1300  164.4525 H       1  UNL1        0.2588
     16 C         141.0411  144.3713  163.9633 C.3     1  UNL1        0.1778
     17 C         140.7083  143.1049  164.6951 C.3     1  UNL1        0.0901
     18 C         141.8085  142.2281  165.2154 C.3     1  UNL1        0.2090
     19 O         141.7763  140.7510  164.9563 O.3     1  UNL1       -0.4753
     20 C         140.6165  139.9302  165.4373 C.ar    1  UNL1        0.1387
     21 C         140.1939  138.7097  164.6745 C.ar    1  UNL1        0.0392
     22 C         139.0341  137.8891  165.1555 C.ar    1  UNL1        0.0327
     23 C         138.2970  138.2888  166.3992 C.ar    1  UNL1        0.1403
     24 F         137.1372  137.4681  166.8802 F       1  UNL1       -0.2042
     25 C         138.7196  139.5093  167.1620 C.ar    1  UNL1        0.0327
     26 C         139.8794  140.3300  166.6810 C.ar    1  UNL1        0.0392
@<TRIPOS>BOND
     1    12    13    1
     2    13     6    1
     3     6     7   ar
     4     7     8   ar
     5     8     9   ar
     6     9     4    1
     7     4     1    1
     8     1     2    2
     9     1    14    1
    10    14    16    1
    11    16    17    1
    12    17    18    1
    13    18    19    1
    14    19    20    1
    15    20    21   ar
    16    21    22   ar
    17    22    23   ar
    18    23    24    1
    19    23    25   ar
    20    25    26   ar
    21     9    10   ar
    22    10    11   ar
    23    11     6   ar
    24    26    20   ar
    25     4     5    1
    26     2     3    1
    27    14    15    1
@<TRIPOS>MOLECULE
*****
 26 27 0 0 0
SMALL
GASTEIGER

@<TRIPOS>ATOM
      1 C         138.3591  144.3050  163.7007 C.cat   1  UNL1        0.3840
      2 N         137.5979  144.7252  162.4783 N.pl3   1  UNL1       -0.1293
      3 H         137.9312  145.4652  161.9210 H       1  UNL1        0.3062
      4 N         139.6281  145.0124  164.0740 N.pl3   1  UNL1       -0.2424
      5 H         139.5908  145.8555  164.5809 H       1  UNL1        0.2649
      6 C         143.6053  143.2807  162.8767 C.ar    1  UNL1        0.1389
      7 C         142.3460  142.5005  162.6412 C.ar    1  UNL1        0.0398
      8 C         141.0203  143.0777  163.0402 C.ar    1  UNL1        0.0365
      9 C         140.9538  144.4352  163.6749 C.ar    1  UNL1        0.1170
     10 C         142.2130  145.2154  163.9105 C.ar    1  UNL1        0.0365
     11 C         143.5388  144.6382  163.5114 C.ar    1  UNL1        0.0398
     12 C         145.6946  141.8430  163.4401 C.3     1  UNL1        0.2525
     13 O         144.9310  142.7035  162.4777 O.3     1  UNL1       -0.4714
     14 N         137.8513  143.1776  164.5498 N.pl3   1  UNL1       -0.2619
     15 H         137.7286  143.3071  165.5180 H       1  UNL1        0.2588
     16 C         137.5304  141.8528  163.9236 C.3     1  UNL1        0.1778
     17 C         138.4263  140.6736  164.1626 C.3     1  UNL1        0.0901
     18 C         138.1707  139.7609  165.3251 C.3     1  UNL1        0.2090
     19 O         139.2277  139.5647  166.3712 O.3     1  UNL1       -0.4753
     20 C         140.4544  140.4281  166.3691 C.ar    1  UNL1        0.1387
     21 C         141.7446  139.8967  165.8186 C.ar    1  UNL1        0.0392
     22 C         142.9712  140.7600  165.8165 C.ar    1  UNL1        0.0327
     23 C         142.9076  142.1547  166.3648 C.ar    1  UNL1        0.1403
     24 F         144.1343  143.0181  166.3627 F       1  UNL1       -0.2042
     25 C         141.6175  142.6861  166.9153 C.ar    1  UNL1        0.0327
     26 C         140.3909  141.8228  166.9174 C.ar    1  UNL1        0.0392
@<TRIPOS>BOND
     1    12    13    1
     2    13     6    1
     3     6     7   ar
     4     7     8   ar
     5     8     9   ar
     6     9     4    1
     7     4     1    1
     8     1     2    2
     9     1    14    1
    10    14    16    1
    11    16    17    1
    12    17    18    1
    13    18    19    1
    14    19    20    1
    15    20    21   ar
    16    21    22   ar
    17    22    23   ar
    18    23    24    1
    19    23    25   ar
    20    25    26   ar
    21     9    10   ar
    22    10    11   ar
    23    11     6   ar
    24    26    20   ar
    25     4     5    1
    26     2     3    1
    27    14    15    1
@<TRIPOS>MOLECULE
*****
 26 27 0 0 0
SMALL
GASTEIGER

@<TRIPOS>ATOM
      1 C         139.6471  145.7646  162.0466 C.cat   1  UNL1        0.3840
      2 N         139.1650  146.7873  161.0607 N.pl3   1  UNL1       -0.1293
      3 H         139.6468  147.6400  160.9607 H       1  UNL1        0.3062
      4 N         140.8632  146.0412  162.8800 N.pl3   1  UNL1       -0.2424
      5 H         140.9017  146.8488  163.4418 H       1  UNL1        0.2649
      6 C         144.3356  143.1798  162.8126 C.ar    1  UNL1        0.1389
      7 C         144.0585  143.9941  164.0415 C.ar    1  UNL1        0.0398
      8 C         142.9011  144.9479  164.0639 C.ar    1  UNL1        0.0365
      9 C         142.0207  145.0874  162.8575 C.ar    1  UNL1        0.1170
     10 C         142.2977  144.2731  161.6287 C.ar    1  UNL1        0.0365
     11 C         143.4552  143.3193  161.6062 C.ar    1  UNL1        0.0398
     12 C         145.6320  141.1897  163.8657 C.3     1  UNL1        0.2525
     13 O         145.4931  142.2259  162.7902 O.3     1  UNL1       -0.4714
     14 N         138.9131  144.4654  162.1990 N.pl3   1  UNL1       -0.2619
     15 H         139.1855  143.6811  161.6700 H       1  UNL1        0.2588
     16 C         137.7639  144.3612  163.1575 C.3     1  UNL1        0.1778
     17 C         138.0238  144.1598  164.6210 C.3     1  UNL1        0.0901
     18 C         139.3845  143.7369  165.0898 C.3     1  UNL1        0.2090
     19 O         139.5520  142.4506  165.8430 O.3     1  UNL1       -0.4753
     20 C         139.3334  141.1399  165.1468 C.ar    1  UNL1        0.1387
     21 C         138.7277  139.9872  165.8912 C.ar    1  UNL1        0.0392
     22 C         138.5091  138.6766  165.1951 C.ar    1  UNL1        0.0327
     23 C         138.8963  138.5189  163.7545 C.ar    1  UNL1        0.1403
     24 F         138.6777  137.2082  163.0584 F       1  UNL1       -0.2042
     25 C         139.5020  139.6716  163.0101 C.ar    1  UNL1        0.0327
     26 C         139.7206  140.9822  163.7063 C.ar    1  UNL1        0.0392
@<TRIPOS>BOND
     1    12    13    1
     2    13     6    1
     3     6     7   ar
     4     7     8   ar
     5     8     9   ar
     6     9     4    1
     7     4     1    1
     8     1     2    2
     9     1    14    1
    10    14    16    1
    11    16    17    1
    12    17    18    1
    13    18    19    1
    14    19    20    1
    15    20    21   ar
    16    21    22   ar
    17    22    23   ar
    18    23    24    1
    19    23    25   ar
    20    25    26   ar
    21     9    10   ar
    22    10    11   ar
    23    11     6   ar
    24    26    20   ar
    25     4     5    1
    26     2     3    1
    27    14    15    1
@<TRIPOS>MOLECULE
*****
 26 27 0 0 0
SMALL
GASTEIGER

@<TRIPOS>ATOM
      1 C         139.4281  145.4810  162.8539 C.cat   1  UNL1        0.3840
      2 N         140.0291  146.5516  161.9921 N.pl3   1  UNL1       -0.1293
      3 H         139.5830  146.8189  161.1562 H       1  UNL1        0.3062
      4 N         138.1473  144.8177  162.4420 N.pl3   1  UNL1       -0.2424
      5 H         137.3632  145.3646  162.2068 H       1  UNL1        0.2649
      6 C         137.8890  140.3279  162.2817 C.ar    1  UNL1        0.1389
      7 C         137.5478  141.0540  163.5491 C.ar    1  UNL1        0.0398
      8 C         137.6340  142.5506  163.6026 C.ar    1  UNL1        0.0365
      9 C         138.0612  143.3211  162.3886 C.ar    1  UNL1        0.1170
     10 C         138.4023  142.5950  161.1212 C.ar    1  UNL1        0.0365
     11 C         138.3162  141.0984  161.0678 C.ar    1  UNL1        0.0398
     12 C         139.0551  138.0064  162.2619 C.3     1  UNL1        0.2525
     13 O         137.8028  138.8314  162.2283 O.3     1  UNL1       -0.4714
     14 N         140.1078  145.0738  164.1275 N.pl3   1  UNL1       -0.2619
     15 H         139.7952  145.4333  164.9891 H       1  UNL1        0.2588
     16 C         141.2639  144.1187  164.0884 C.3     1  UNL1        0.1778
     17 C         141.1810  142.8107  164.8180 C.3     1  UNL1        0.0901
     18 C         141.2627  141.5208  164.0568 C.3     1  UNL1        0.2090
     19 O         140.8168  140.2410  164.6997 O.3     1  UNL1       -0.4753
     20 C         140.8141  140.1137  166.1943 C.ar    1  UNL1        0.1387
     21 C         142.0993  139.8709  166.9287 C.ar    1  UNL1        0.0392
     22 C         142.0965  139.7436  168.4232 C.ar    1  UNL1        0.0327
     23 C         140.8085  139.8591  169.1834 C.ar    1  UNL1        0.1403
     24 F         140.8058  139.7317  170.6780 F       1  UNL1       -0.2042
     25 C         139.5234  140.1018  168.4490 C.ar    1  UNL1        0.0327
     26 C         139.5261  140.2291  166.9545 C.ar    1  UNL1        0.0392
@<TRIPOS>BOND
     1    12    13    1
     2    13     6    1
     3     6     7   ar
     4     7     8   ar
     5     8     9   ar
     6     9     4    1
     7     4     1    1
     8     1     2    2
     9     1    14    1
    10    14    16    1
    11    16    17    1
    12    17    18    1
    13    18    19    1
    14    19    20    1
    15    20    21   ar
    16    21    22   ar
    17    22    23   ar
    18    23    24    1
    19    23    25   ar
    20    25    26   ar
    21     9    10   ar
    22    10    11   ar
    23    11     6   ar
    24    26    20   ar
    25     4     5    1
    26     2     3    1
    27    14    15    1
@<TRIPOS>MOLECULE
*****
 26 27 0 0 0
SMALL
GASTEIGER

@<TRIPOS>ATOM
      1 C         141.8194  145.1401  162.7281 C.cat   1  UNL1        0.3840
      2 N         142.5123  144.7320  161.4618 N.pl3   1  UNL1       -0.1293
      3 H         143.2974  144.1392  161.4994 H       1  UNL1        0.3062
      4 N         142.3226  144.6449  164.0515 N.pl3   1  UNL1       -0.2424
      5 H         142.4596  145.2770  164.7938 H       1  UNL1        0.2649
      6 C         143.2058  140.2704  164.6290 C.ar    1  UNL1        0.1389
      7 C         141.8050  140.7206  164.3375 C.ar    1  UNL1        0.0398
      8 C         141.5106  142.1788  164.1450 C.ar    1  UNL1        0.0365
      9 C         142.6170  143.1868  164.2440 C.ar    1  UNL1        0.1170
     10 C         144.0178  142.7366  164.5355 C.ar    1  UNL1        0.0365
     11 C         144.3122  141.2784  164.7280 C.ar    1  UNL1        0.0398
     12 C         143.6219  138.2480  166.2060 C.3     1  UNL1        0.2525
     13 O         143.5003  138.8122  164.8215 O.3     1  UNL1       -0.4714
     14 N         140.6232  146.0434  162.6709 N.pl3   1  UNL1       -0.2619
     15 H         140.7327  147.0138  162.7963 H       1  UNL1        0.2588
     16 C         139.2603  145.4683  162.4225 C.3     1  UNL1        0.1778
     17 C         139.0644  143.9812  162.4117 C.3     1  UNL1        0.0901
     18 C         137.7466  143.3953  162.8242 C.3     1  UNL1        0.2090
     19 O         137.3527  142.0276  162.3506 O.3     1  UNL1       -0.4753
     20 C         137.8217  140.8124  163.0945 C.ar    1  UNL1        0.1387
     21 C         138.1746  139.5630  162.3433 C.ar    1  UNL1        0.0392
     22 C         138.6436  138.3478  163.0872 C.ar    1  UNL1        0.0327
     23 C         138.7596  138.3821  164.5824 C.ar    1  UNL1        0.1403
     24 F         139.2286  137.1669  165.3263 F       1  UNL1       -0.2042
     25 C         138.4067  139.6315  165.3336 C.ar    1  UNL1        0.0327
     26 C         137.9377  140.8467  164.5896 C.ar    1  UNL1        0.0392
@<TRIPOS>BOND
     1    12    13    1
     2    13     6    1
     3     6     7   ar
     4     7     8   ar
     5     8     9   ar
     6     9     4    1
     7     4     1    1
     8     1     2    2
     9     1    14    1
    10    14    16    1
    11    16    17    1
    12    17    18    1
    13    18    19    1
    14    19    20    1
    15    20    21   ar
    16    21    22   ar
    17    22    23   ar
    18    23    24    1
    19    23    25   ar
    20    25    26   ar
    21     9    10   ar
    22    10    11   ar
    23    11     6   ar
    24    26    20   ar
    25     4     5    1
    26     2     3    1
    27    14    15    1
@<TRIPOS>MOLECULE
*****
 26 27 0 0 0
SMALL
GASTEIGER

@<TRIPOS>ATOM
      1 C         139.7458  145.6107  161.9215 C.cat   1  UNL1        0.3840
      2 N         139.7960  145.7549  160.4292 N.pl3   1  UNL1       -0.1293
      3 H         138.9964  145.5608  159.8888 H       1  UNL1        0.3062
      4 N         138.4773  145.1707  162.5902 N.pl3   1  UNL1       -0.2424
      5 H         137.7044  145.7792  162.6285 H       1  UNL1        0.2649
      6 C         138.2047  141.0691  164.4213 C.ar    1  UNL1        0.1389
      7 C         138.8997  142.1750  165.1588 C.ar    1  UNL1        0.0398
      8 C         138.9906  143.5422  164.5484 C.ar    1  UNL1        0.0365
      9 C         138.3864  143.8035  163.2006 C.ar    1  UNL1        0.1170
     10 C         137.6914  142.6976  162.4631 C.ar    1  UNL1        0.0365
     11 C         137.6005  141.3304  163.0735 C.ar    1  UNL1        0.0398
     12 C         138.8527  138.5532  164.4118 C.3     1  UNL1        0.2525
     13 O         138.1138  139.7020  165.0317 O.3     1  UNL1       -0.4714
     14 N         140.9642  145.9064  162.7450 N.pl3   1  UNL1       -0.2619
     15 H         141.0646  146.7851  163.1775 H       1  UNL1        0.2588
     16 C         142.0296  144.8633  162.9095 C.3     1  UNL1        0.1778
     17 C         143.3658  145.2393  163.4779 C.3     1  UNL1        0.0901
     18 C         144.0093  144.3714  164.5184 C.3     1  UNL1        0.2090
     19 O         144.8148  143.1757  164.1041 O.3     1  UNL1       -0.4753
     20 C         144.4147  141.8055  164.5653 C.ar    1  UNL1        0.1387
     21 C         143.2653  141.6396  165.5146 C.ar    1  UNL1        0.0392
     22 C         142.8653  140.2694  165.9757 C.ar    1  UNL1        0.0327
     23 C         143.6146  139.0653  165.4875 C.ar    1  UNL1        0.1403
     24 F         143.2146  137.6951  165.9487 F       1  UNL1       -0.2042
     25 C         144.7640  139.2312  164.5382 C.ar    1  UNL1        0.0327
     26 C         145.1641  140.6013  164.0770 C.ar    1  UNL1        0.0392
@<TRIPOS>BOND
     1    12    13    1
     2    13     6    1
     3     6     7   ar
     4     7     8   ar
     5     8     9   ar
     6     9     4    1
     7     4     1    1
     8     1     2    2
     9     1    14    1
    10    14    16    1
    11    16    17    1
    12    17    18    1
    13    18    19    1
    14    19    20    1
    15    20    21   ar
    16    21    22   ar
    17    22    23   ar
    18    23    24    1
    19    23    25   ar
    20    25    26   ar
    21     9    10   ar
    22    10    11   ar
    23    11     6   ar
    24    26    20   ar
    25     4     5    1
    26     2     3    1
    27    14    15    1
@<TRIPOS>MOLECULE
*****
 26 27 0 0 0
SMALL
GASTEIGER

@<TRIPOS>ATOM
      1 C         145.2577  141.1355  164.0060 C.cat   1  UNL1        0.3840
      2 N         146.3891  141.7288  163.2199 N.pl3   1  UNL1       -0.1293
      3 H         146.4682  142.7062  163.1321 H       1  UNL1        0.3062
      4 N         144.2468  142.0313  164.6583 N.pl3   1  UNL1       -0.2424
      5 H         144.1741  142.0588  165.6397 H       1  UNL1        0.2649
      6 C         141.5467  144.5933  162.1294 C.ar    1  UNL1        0.1389
      7 C         141.6493  143.1208  161.8626 C.ar    1  UNL1        0.0398
      8 C         142.5494  142.2668  162.7056 C.ar    1  UNL1        0.0365
      9 C         143.3468  142.8853  163.8153 C.ar    1  UNL1        0.1170
     10 C         143.2442  144.3578  164.0821 C.ar    1  UNL1        0.0365
     11 C         142.3442  145.2118  163.2391 C.ar    1  UNL1        0.0398
     12 C         139.5859  146.2866  161.9347 C.3     1  UNL1        0.2525
     13 O         140.6467  145.4473  161.2864 O.3     1  UNL1       -0.4714
     14 N         145.1372  139.6463  164.1398 N.pl3   1  UNL1       -0.2619
     15 H         145.7369  139.0560  163.6286 H       1  UNL1        0.2588
     16 C         144.1031  139.0565  165.0524 C.3     1  UNL1        0.1778
     17 C         142.6762  138.9536  164.6016 C.3     1  UNL1        0.0901
     18 C         141.5624  139.2098  165.5731 C.3     1  UNL1        0.2090
     19 O         141.3759  140.5792  166.1562 O.3     1  UNL1       -0.4753
     20 C         140.3917  141.5289  165.5402 C.ar    1  UNL1        0.1387
     21 C         139.4284  141.0402  164.4995 C.ar    1  UNL1        0.0392
     22 C         138.4442  141.9899  163.8836 C.ar    1  UNL1        0.0327
     23 C         138.4233  143.4284  164.3084 C.ar    1  UNL1        0.1403
     24 F         137.4390  144.3781  163.6925 F       1  UNL1       -0.2042
     25 C         139.3866  143.9171  165.3491 C.ar    1  UNL1        0.0327
     26 C         140.3708  142.9674  165.9650 C.ar    1  UNL1        0.0392
@<TRIPOS>BOND
     1    12    13    1
     2    13     6    1
     3     6     7   ar
     4     7     8   ar
     5     8     9   ar
     6     9     4    1
     7     4     1    1
     8     1     2    2
     9     1    14    1
    10    14    16    1
    11    16    17    1
    12    17    18    1
    13    18    19    1
    14    19    20    1
    15    20    21   ar
    16    21    22   ar
    17    22    23   ar
    18    23    24    1
    19    23    25   ar
    20    25    26   ar
    21     9    10   ar
    22    10    11   ar
    23    11     6   ar
    24    26    20   ar
    25     4     5    1
    26     2     3    1
    27    14    15    1
@<TRIPOS>MOLECULE
*****
 26 27 0 0 0
SMALL
GASTEIGER

@<TRIPOS>ATOM
      1 C         144.9596  142.2563  163.0720 C.cat   1  UNL1        0.3840
      2 N         146.3389  141.7483  163.3713 N.pl3   1  UNL1       -0.1293
      3 H         146.4587  140.8600  163.7787 H       1  UNL1        0.3062
      4 N         143.7628  141.4109  163.3932 N.pl3   1  UNL1       -0.2424
      5 H         143.2462  140.9929  162.6669 H       1  UNL1        0.2649
      6 C         142.5342  140.7857  167.6769 C.ar    1  UNL1        0.1389
      7 C         143.0436  142.1240  167.2304 C.ar    1  UNL1        0.0398
      8 C         143.4531  142.3324  165.8026 C.ar    1  UNL1        0.0365
      9 C         143.3533  141.2025  164.8211 C.ar    1  UNL1        0.1170
     10 C         142.8439  139.8642  165.2675 C.ar    1  UNL1        0.0365
     11 C         142.4343  139.6558  166.6954 C.ar    1  UNL1        0.0398
     12 C         142.4349  139.2808  169.7924 C.3     1  UNL1        0.2525
     13 O         142.1246  140.5772  169.1047 O.3     1  UNL1       -0.4714
     14 N         144.7771  143.6096  162.4514 N.pl3   1  UNL1       -0.2619
     15 H         145.5621  144.1281  162.1614 H       1  UNL1        0.2588
     16 C         143.3984  144.1730  162.2726 C.3     1  UNL1        0.1778
     17 C         142.7769  144.9950  163.3626 C.3     1  UNL1        0.0901
     18 C         141.2842  145.1043  163.4613 C.3     1  UNL1        0.2090
     19 O         140.5598  144.4664  164.6095 O.3     1  UNL1       -0.4753
     20 C         140.1205  143.0351  164.5169 C.ar    1  UNL1        0.1387
     21 C         139.6028  142.3292  165.7349 C.ar    1  UNL1        0.0392
     22 C         139.1636  140.8979  165.6423 C.ar    1  UNL1        0.0327
     23 C         139.2421  140.1726  164.3317 C.ar    1  UNL1        0.1403
     24 F         138.8028  138.7413  164.2391 F       1  UNL1       -0.2042
     25 C         139.7598  140.8785  163.1137 C.ar    1  UNL1        0.0327
     26 C         140.1990  142.3097  163.2063 C.ar    1  UNL1        0.0392
@<TRIPOS>BOND
     1    12    13    1
     2    13     6    1
     3     6     7   ar
     4     7     8   ar
     5     8     9   ar
     6     9     4    1
     7     4     1    1
     8     1     2    2
     9     1    14    1
    10    14    16    1
    11    16    17    1
    12    17    18    1
    13    18    19    1
    14    19    20    1
    15    20    21   ar
    16    21    22   ar
    17    22    23   ar
    18    23    24    1
    19    23    25   ar
    20    25    26   ar
    21     9    10   ar
    22    10    11   ar
    23    11     6   ar
    24    26    20   ar
    25     4     5    1
    26     2     3    1
    27    14    15    1
