@<TRIPOS>MOLECULE
*****
 40 43 0 0 0
SMALL
GASTEIGER

@<TRIPOS>ATOM
      1 C         141.2511  139.5945  161.7534 C.2     1  UNL1        0.1397
      2 C         141.7894  139.9469  160.3985 C.2     1  UNL1        0.1355
      3 N         140.8625  140.4453  159.3296 N.pl3   1  UNL1       -0.1998
      4 C         139.3973  140.5912  159.6157 C.2     1  UNL1        0.3442
      5 N         138.8591  140.2388  160.9706 N.2     1  UNL1       -0.0580
      6 C         139.7859  139.7405  162.0395 C.3     1  UNL1        0.2692
      7 H         141.2158  140.6766  158.4403 H       1  UNL1        0.2983
      8 C         139.2476  139.3880  163.3946 C.ar    1  UNL1        0.0371
      9 C         139.1202  137.9495  163.8001 C.ar    1  UNL1        0.0030
     10 C         138.5819  137.5970  165.1550 C.ar    1  UNL1        0.0295
     11 C         138.1709  138.6831  166.1045 C.ar    1  UNL1        0.1406
     12 F         137.6325  138.3307  167.4595 F       1  UNL1       -0.2042
     13 C         138.2982  140.1217  165.6990 C.ar    1  UNL1        0.0362
     14 C         138.8366  140.4741  164.3440 C.ar    1  UNL1        0.0372
     15 BR        138.9639  141.9126  163.9385 Br      1  UNL1       -0.0491
     16 C         138.4704  141.0896  158.5468 C.ar    1  UNL1        0.1931
     17 N         137.4346  140.2765  157.8286 N.ar    1  UNL1       -0.2297
     18 C         136.7406  141.1729  156.8464 C.ar    1  UNL1        0.1067
     19 C         137.3476  142.5401  156.9575 C.ar    1  UNL1        0.0577
     20 S         138.4167  142.4886  158.0084 S.2     1  UNL1       -0.0586
     21 C         142.1780  139.0961  162.8223 C.2     1  UNL1        0.3447
     22 O         142.6353  137.6676  162.8122 O.2     1  UNL1       -0.2450
     23 O         142.6476  140.0263  163.9013 O.3     1  UNL1       -0.4455
     24 C         143.1862  138.7245  166.0843 C.3     1  UNL1        0.0513
     25 C         142.3476  139.7199  165.3387 C.3     1  UNL1        0.2089
     26 C         143.2547  139.8010  160.1123 C.3     1  UNL1        0.1408
     27 N         143.9038  140.6590  159.0672 N.3     1  UNL1       -0.2555
     28 C         143.9788  140.1832  157.6467 C.3     1  UNL1        0.1053
     29 C         144.6280  141.0413  156.6015 C.3     1  UNL1        0.1595
     30 O         145.2022  142.3752  156.9770 O.3     1  UNL1       -0.3503
     31 C         145.1272  142.8511  158.3975 C.3     1  UNL1        0.1675
     32 C         144.4781  141.9930  159.4426 C.3     1  UNL1        0.1665
     33 C         144.4031  142.4688  160.8632 C.2     1  UNL1        0.2576
     34 O         145.3121  141.8793  161.9006 O.2     1  UNL1       -0.2720
     35 N         143.4192  143.5342  161.2463 N.am    1  UNL1       -0.1875
     36 H         142.8226  143.9211  160.5655 H       1  UNL1        0.1762
     37 S         143.3442  144.0100  162.6669 S.O2    1  UNL1        0.0579
     38 C         143.2692  144.4859  164.0874 C.3     1  UNL1        0.1997
     39 O         142.2334  143.0379  162.9339 O.2     1  UNL1       -0.1544
     40 O         144.4549  144.9821  162.3999 O.2     1  UNL1       -0.1544
@<TRIPOS>BOND
     1    24    25    1
     2    25    23    1
     3    23    21    1
     4    21    22    2
     5    21     1    1
     6     1     2    2
     7     2    26    1
     8    26    27    1
     9    27    28    1
    10    28    29    1
    11    29    30    1
    12    30    31    1
    13    31    32    1
    14    32    33    1
    15    33    34    2
    16    33    35   am
    17    35    37    1
    18    37    38    1
    19    37    39    2
    20    37    40    2
    21     2     3    1
    22     3     4    1
    23     4    16    1
    24    16    17   ar
    25    17    18   ar
    26    18    19   ar
    27    19    20   ar
    28     4     5    2
    29     5     6    1
    30     6     8    1
    31     8     9   ar
    32     9    10   ar
    33    10    11   ar
    34    11    12    1
    35    11    13   ar
    36    13    14   ar
    37    14    15    1
    38     6     1    1
    39    14     8   ar
    40    32    27    1
    41    20    16   ar
    42    35    36    1
    43     3     7    1
@<TRIPOS>MOLECULE
*****
 40 43 0 0 0
SMALL
GASTEIGER

@<TRIPOS>ATOM
      1 C         142.3198  140.1223  160.3843 C.2     1  UNL1        0.1397
      2 C         143.0138  140.5499  159.1252 C.2     1  UNL1        0.1355
      3 N         143.1457  139.5913  157.9789 N.pl3   1  UNL1       -0.1998
      4 C         142.5836  138.2052  158.0919 C.2     1  UNL1        0.3442
      5 N         141.8896  137.7777  159.3510 N.2     1  UNL1       -0.0580
      6 C         141.7577  138.7363  160.4972 C.3     1  UNL1        0.2692
      7 H         143.6013  139.8719  157.1525 H       1  UNL1        0.2983
      8 C         141.0636  138.3087  161.7564 C.ar    1  UNL1        0.0371
      9 C         141.8620  137.7747  162.9086 C.ar    1  UNL1        0.0030
     10 C         141.1680  137.3471  164.1678 C.ar    1  UNL1        0.0295
     11 C         139.6756  137.4535  164.2748 C.ar    1  UNL1        0.1406
     12 F         138.9816  137.0259  165.5339 F       1  UNL1       -0.2042
     13 C         138.8772  137.9874  163.1226 C.ar    1  UNL1        0.0362
     14 C         139.5713  138.4150  161.8634 C.ar    1  UNL1        0.0372
     15 BR        138.7729  138.9489  160.7112 Br      1  UNL1       -0.0491
     16 C         142.7155  137.2467  156.9457 C.ar    1  UNL1        0.1931
     17 N         143.9921  136.8693  156.2543 N.ar    1  UNL1       -0.2297
     18 C         143.6596  135.8866  155.1709 C.ar    1  UNL1        0.1067
     19 C         142.1775  135.6567  155.1927 C.ar    1  UNL1        0.0577
     20 S         141.5941  136.4972  156.2895 S.2     1  UNL1       -0.0586
     21 C         142.1879  141.0809  161.5305 C.2     1  UNL1        0.3447
     22 O         140.8620  141.7159  161.8283 O.2     1  UNL1       -0.2450
     23 O         143.3818  141.4044  162.3789 O.3     1  UNL1       -0.4455
     24 C         144.8547  139.8783  163.8795 C.3     1  UNL1        0.0513
     25 C         144.4921  140.4061  162.5230 C.3     1  UNL1        0.2089
     26 C         143.5760  141.9360  159.0122 C.3     1  UNL1        0.1408
     27 N         143.3678  142.7297  157.7565 N.3     1  UNL1       -0.2555
     28 C         144.2482  142.4934  156.5653 C.3     1  UNL1        0.1053
     29 C         144.0400  143.2871  155.3096 C.3     1  UNL1        0.1595
     30 O         142.9515  144.3171  155.2452 O.3     1  UNL1       -0.3503
     31 C         142.0711  144.5534  156.4364 C.3     1  UNL1        0.1675
     32 C         142.2792  143.7597  157.6921 C.3     1  UNL1        0.1665
     33 C         141.3989  143.9960  158.8833 C.2     1  UNL1        0.2576
     34 O         140.2250  143.0976  159.1383 O.2     1  UNL1       -0.2720
     35 N         141.6923  145.1306  159.8195 N.am    1  UNL1       -0.1875
     36 H         142.4627  145.7202  159.6521 H       1  UNL1        0.1762
     37 S         140.8119  145.3669  161.0108 S.O2    1  UNL1        0.0579
     38 C         139.9315  145.6032  162.2020 C.3     1  UNL1        0.1997
     39 O         141.8574  144.7658  161.9027 O.2     1  UNL1       -0.1544
     40 O         139.7664  145.9680  160.1188 O.2     1  UNL1       -0.1544
@<TRIPOS>BOND
     1    24    25    1
     2    25    23    1
     3    23    21    1
     4    21    22    2
     5    21     1    1
     6     1     2    2
     7     2    26    1
     8    26    27    1
     9    27    28    1
    10    28    29    1
    11    29    30    1
    12    30    31    1
    13    31    32    1
    14    32    33    1
    15    33    34    2
    16    33    35   am
    17    35    37    1
    18    37    38    1
    19    37    39    2
    20    37    40    2
    21     2     3    1
    22     3     4    1
    23     4    16    1
    24    16    17   ar
    25    17    18   ar
    26    18    19   ar
    27    19    20   ar
    28     4     5    2
    29     5     6    1
    30     6     8    1
    31     8     9   ar
    32     9    10   ar
    33    10    11   ar
    34    11    12    1
    35    11    13   ar
    36    13    14   ar
    37    14    15    1
    38     6     1    1
    39    14     8   ar
    40    32    27    1
    41    20    16   ar
    42    35    36    1
    43     3     7    1
@<TRIPOS>MOLECULE
*****
 40 43 0 0 0
SMALL
GASTEIGER

@<TRIPOS>ATOM
      1 C         140.5538  140.4949  161.2728 C.2     1  UNL1        0.1397
      2 C         139.9676  140.7656  159.9189 C.2     1  UNL1        0.1355
      3 N         140.3512  139.9071  158.7502 N.pl3   1  UNL1       -0.1998
      4 C         141.3210  138.7779  158.9354 C.2     1  UNL1        0.3442
      5 N         141.9073  138.5073  160.2892 N.2     1  UNL1       -0.0580
      6 C         141.5237  139.3658  161.4579 C.3     1  UNL1        0.2692
      7 H         139.9663  140.0848  157.8616 H       1  UNL1        0.2983
      8 C         142.1100  139.0950  162.8118 C.ar    1  UNL1        0.0371
      9 C         143.4018  139.7434  163.2130 C.ar    1  UNL1        0.0030
     10 C         143.9882  139.4727  164.5668 C.ar    1  UNL1        0.0295
     11 C         143.2827  138.5536  165.5196 C.ar    1  UNL1        0.1406
     12 F         143.8691  138.2830  166.8734 F       1  UNL1       -0.2042
     13 C         141.9909  137.9053  165.1184 C.ar    1  UNL1        0.0362
     14 C         141.4046  138.1760  163.7645 C.ar    1  UNL1        0.0372
     15 BR        140.1128  137.5276  163.3634 Br      1  UNL1       -0.0491
     16 C         141.7046  137.9194  157.7667 C.ar    1  UNL1        0.1931
     17 N         143.0784  137.3946  157.4715 N.ar    1  UNL1       -0.2297
     18 C         143.0046  136.5858  156.2103 C.ar    1  UNL1        0.1067
     19 C         141.5851  136.6109  155.7261 C.ar    1  UNL1        0.0577
     20 S         140.7817  137.4351  156.6879 S.2     1  UNL1       -0.0586
     21 C         140.1703  141.3534  162.4415 C.2     1  UNL1        0.3447
     22 O         140.9950  142.5565  162.7910 O.2     1  UNL1       -0.2450
     23 O         138.9619  141.0088  163.2606 O.3     1  UNL1       -0.4455
     24 C         137.8006  143.1112  164.2513 C.3     1  UNL1        0.0513
     25 C         137.7929  141.9477  163.3046 C.3     1  UNL1        0.2089
     26 C         138.9977  141.8948  159.7337 C.3     1  UNL1        0.1408
     27 N         139.4265  143.1423  159.0198 N.3     1  UNL1       -0.2555
     28 C         140.1784  144.2089  159.7595 C.3     1  UNL1        0.1053
     29 C         140.6072  145.4565  159.0455 C.3     1  UNL1        0.1595
     30 O         140.2842  145.6375  157.5920 O.3     1  UNL1       -0.3503
     31 C         139.5323  144.5709  156.8523 C.3     1  UNL1        0.1675
     32 C         139.1034  143.3234  157.5662 C.3     1  UNL1        0.1665
     33 C         138.3515  142.2568  156.8266 C.2     1  UNL1        0.2576
     34 O         139.0956  141.1273  156.1779 O.2     1  UNL1       -0.2720
     35 N         136.8556  142.3197  156.7356 N.am    1  UNL1       -0.1875
     36 H         136.3673  143.0610  157.1613 H       1  UNL1        0.1762
     37 S         136.1037  141.2532  155.9959 S.O2    1  UNL1        0.0579
     38 C         135.3518  140.1866  155.2562 C.3     1  UNL1        0.1997
     39 O         136.1110  140.3949  157.2261 O.2     1  UNL1       -0.1544
     40 O         136.0964  142.1114  154.7657 O.2     1  UNL1       -0.1544
@<TRIPOS>BOND
     1    24    25    1
     2    25    23    1
     3    23    21    1
     4    21    22    2
     5    21     1    1
     6     1     2    2
     7     2    26    1
     8    26    27    1
     9    27    28    1
    10    28    29    1
    11    29    30    1
    12    30    31    1
    13    31    32    1
    14    32    33    1
    15    33    34    2
    16    33    35   am
    17    35    37    1
    18    37    38    1
    19    37    39    2
    20    37    40    2
    21     2     3    1
    22     3     4    1
    23     4    16    1
    24    16    17   ar
    25    17    18   ar
    26    18    19   ar
    27    19    20   ar
    28     4     5    2
    29     5     6    1
    30     6     8    1
    31     8     9   ar
    32     9    10   ar
    33    10    11   ar
    34    11    12    1
    35    11    13   ar
    36    13    14   ar
    37    14    15    1
    38     6     1    1
    39    14     8   ar
    40    32    27    1
    41    20    16   ar
    42    35    36    1
    43     3     7    1
@<TRIPOS>MOLECULE
*****
 40 43 0 0 0
SMALL
GASTEIGER

@<TRIPOS>ATOM
      1 C         139.0302  140.9940  160.8295 C.2     1  UNL1        0.1397
      2 C         139.0511  140.2538  159.5250 C.2     1  UNL1        0.1355
      3 N         138.7887  140.9865  158.2427 N.pl3   1  UNL1       -0.1998
      4 C         138.5054  142.4593  158.2648 C.2     1  UNL1        0.3442
      5 N         138.4845  143.1995  159.5693 N.2     1  UNL1       -0.0580
      6 C         138.7469  142.4668  160.8516 C.3     1  UNL1        0.2692
      7 H         138.8024  140.5007  157.3865 H       1  UNL1        0.2983
      8 C         138.7261  143.2070  162.1562 C.ar    1  UNL1        0.0371
      9 C         137.5314  143.1048  163.0574 C.ar    1  UNL1        0.0030
     10 C         137.5105  143.8449  164.3619 C.ar    1  UNL1        0.0295
     11 C         138.6843  144.6874  164.7651 C.ar    1  UNL1        0.1406
     12 F         138.6633  145.4276  166.0696 F       1  UNL1       -0.2042
     13 C         139.8789  144.7897  163.8639 C.ar    1  UNL1        0.0362
     14 C         139.8998  144.0494  162.5593 C.ar    1  UNL1        0.0372
     15 BR        141.0945  144.1517  161.6580 Br      1  UNL1       -0.0491
     16 C         138.2430  143.1920  156.9825 C.ar    1  UNL1        0.1931
     17 N         139.1047  144.2666  156.3888 N.ar    1  UNL1       -0.2297
     18 C         138.4670  144.7175  155.1081 C.ar    1  UNL1        0.1067
     19 C         137.2112  143.9215  154.9103 C.ar    1  UNL1        0.0577
     20 S         137.0727  142.9787  156.0687 S.2     1  UNL1       -0.0586
     21 C         139.2927  140.2613  162.1118 C.2     1  UNL1        0.3447
     22 O         138.3264  139.2191  162.5914 O.2     1  UNL1       -0.2450
     23 O         140.5213  140.5709  162.9145 O.3     1  UNL1       -0.4455
     24 C         141.4375  141.6605  165.0879 C.3     1  UNL1        0.0513
     25 C         140.4107  140.8188  164.3897 C.3     1  UNL1        0.2089
     26 C         139.3344  138.7810  159.5028 C.3     1  UNL1        0.1408
     27 N         140.3007  138.2181  158.5031 N.3     1  UNL1       -0.2555
     28 C         139.8027  137.7101  157.1824 C.3     1  UNL1        0.1053
     29 C         140.7691  137.1472  156.1827 C.3     1  UNL1        0.1595
     30 O         142.2333  137.0923  156.5037 O.3     1  UNL1       -0.3503
     31 C         142.7312  137.6002  157.8243 C.3     1  UNL1        0.1675
     32 C         141.7650  138.1631  158.8240 C.3     1  UNL1        0.1665
     33 C         142.2629  138.6710  160.1446 C.2     1  UNL1        0.2576
     34 O         142.4639  140.1426  160.3547 O.2     1  UNL1       -0.2720
     35 N         142.5597  137.7074  161.2552 N.am    1  UNL1       -0.1875
     36 H         142.4278  136.7416  161.1173 H       1  UNL1        0.1762
     37 S         143.0577  138.2153  162.5758 S.O2    1  UNL1        0.0579
     38 C         143.5556  138.7232  163.8964 C.3     1  UNL1        0.1997
     39 O         144.3242  138.6795  161.9197 O.2     1  UNL1       -0.1544
     40 O         141.7911  137.7511  163.2319 O.2     1  UNL1       -0.1544
@<TRIPOS>BOND
     1    24    25    1
     2    25    23    1
     3    23    21    1
     4    21    22    2
     5    21     1    1
     6     1     2    2
     7     2    26    1
     8    26    27    1
     9    27    28    1
    10    28    29    1
    11    29    30    1
    12    30    31    1
    13    31    32    1
    14    32    33    1
    15    33    34    2
    16    33    35   am
    17    35    37    1
    18    37    38    1
    19    37    39    2
    20    37    40    2
    21     2     3    1
    22     3     4    1
    23     4    16    1
    24    16    17   ar
    25    17    18   ar
    26    18    19   ar
    27    19    20   ar
    28     4     5    2
    29     5     6    1
    30     6     8    1
    31     8     9   ar
    32     9    10   ar
    33    10    11   ar
    34    11    12    1
    35    11    13   ar
    36    13    14   ar
    37    14    15    1
    38     6     1    1
    39    14     8   ar
    40    32    27    1
    41    20    16   ar
    42    35    36    1
    43     3     7    1
@<TRIPOS>MOLECULE
*****
 40 43 0 0 0
SMALL
GASTEIGER

@<TRIPOS>ATOM
      1 C         140.4142  139.6148  164.0973 C.2     1  UNL1        0.1397
      2 C         140.4668  139.7980  162.6095 C.2     1  UNL1        0.1355
      3 N         140.3693  141.1736  162.0194 N.pl3   1  UNL1       -0.1998
      4 C         140.2192  142.3659  162.9171 C.2     1  UNL1        0.3442
      5 N         140.1666  142.1826  164.4049 N.2     1  UNL1       -0.0580
      6 C         140.2641  140.8071  164.9950 C.3     1  UNL1        0.2692
      7 H         140.4039  141.2939  161.0429 H       1  UNL1        0.2983
      8 C         140.2114  140.6238  166.4829 C.ar    1  UNL1        0.0371
      9 C         139.0181  139.9724  167.1166 C.ar    1  UNL1        0.0030
     10 C         138.9654  139.7891  168.6044 C.ar    1  UNL1        0.0295
     11 C         140.1062  140.2573  169.4586 C.ar    1  UNL1        0.1406
     12 F         140.0535  140.0741  170.9464 F       1  UNL1       -0.2042
     13 C         141.2995  140.9088  168.8249 C.ar    1  UNL1        0.0362
     14 C         141.3521  141.0920  167.3370 C.ar    1  UNL1        0.0372
     15 BR        142.5455  141.7435  166.7034 Br      1  UNL1       -0.0491
     16 C         140.1217  143.7415  162.3269 C.ar    1  UNL1        0.1931
     17 N         139.5628  144.9555  163.0080 N.ar    1  UNL1       -0.2297
     18 C         139.6616  146.1089  162.0541 C.ar    1  UNL1        0.1067
     19 C         140.2816  145.6078  160.7834 C.ar    1  UNL1        0.0577
     20 S         140.5659  144.1446  160.9521 S.2     1  UNL1       -0.0586
     21 C         140.5117  138.2392  164.6875 C.2     1  UNL1        0.3447
     22 O         139.2656  137.4972  165.0702 O.2     1  UNL1       -0.2450
     23 O         141.8554  137.6056  164.8949 O.3     1  UNL1       -0.4455
     24 C         143.8395  138.1377  166.4856 C.3     1  UNL1        0.0513
     25 C         143.0370  138.4550  165.2586 C.3     1  UNL1        0.2089
     26 C         140.6170  138.6057  161.7118 C.3     1  UNL1        0.1408
     27 N         140.8545  138.7978  160.2433 N.3     1  UNL1       -0.2555
     28 C         139.7858  138.4315  159.2565 C.3     1  UNL1        0.1053
     29 C         140.0233  138.6236  157.7879 C.3     1  UNL1        0.1595
     30 O         141.3295  139.1819  157.3061 O.3     1  UNL1       -0.3503
     31 C         142.3982  139.5482  158.2929 C.3     1  UNL1        0.1675
     32 C         142.1607  139.3561  159.7614 C.3     1  UNL1        0.1665
     33 C         143.2294  139.7223  160.7482 C.2     1  UNL1        0.2576
     34 O         144.1176  138.6580  161.3214 O.2     1  UNL1       -0.2720
     35 N         143.4099  141.1528  161.1619 N.am    1  UNL1       -0.1875
     36 H         142.8270  141.8513  160.7858 H       1  UNL1        0.1762
     37 S         144.4786  141.5190  162.1487 S.O2    1  UNL1        0.0579
     38 C         145.5473  141.8852  163.1355 C.3     1  UNL1        0.1997
     39 O         145.4003  141.8725  161.0193 O.2     1  UNL1       -0.1544
     40 O         143.5569  141.1655  163.2781 O.2     1  UNL1       -0.1544
@<TRIPOS>BOND
     1    24    25    1
     2    25    23    1
     3    23    21    1
     4    21    22    2
     5    21     1    1
     6     1     2    2
     7     2    26    1
     8    26    27    1
     9    27    28    1
    10    28    29    1
    11    29    30    1
    12    30    31    1
    13    31    32    1
    14    32    33    1
    15    33    34    2
    16    33    35   am
    17    35    37    1
    18    37    38    1
    19    37    39    2
    20    37    40    2
    21     2     3    1
    22     3     4    1
    23     4    16    1
    24    16    17   ar
    25    17    18   ar
    26    18    19   ar
    27    19    20   ar
    28     4     5    2
    29     5     6    1
    30     6     8    1
    31     8     9   ar
    32     9    10   ar
    33    10    11   ar
    34    11    12    1
    35    11    13   ar
    36    13    14   ar
    37    14    15    1
    38     6     1    1
    39    14     8   ar
    40    32    27    1
    41    20    16   ar
    42    35    36    1
    43     3     7    1
@<TRIPOS>MOLECULE
*****
 40 43 0 0 0
SMALL
GASTEIGER

@<TRIPOS>ATOM
      1 C         140.4951  140.5025  161.2579 C.2     1  UNL1        0.1397
      2 C         139.8514  140.7795  159.9317 C.2     1  UNL1        0.1355
      3 N         140.1301  139.8839  158.7611 N.pl3   1  UNL1       -0.1998
      4 C         141.0524  138.7113  158.9167 C.2     1  UNL1        0.3442
      5 N         141.6961  138.4343  160.2430 N.2     1  UNL1       -0.0580
      6 C         141.4174  139.3299  161.4135 C.3     1  UNL1        0.2692
      7 H         139.7076  140.0657  157.8906 H       1  UNL1        0.2983
      8 C         142.0612  139.0529  162.7398 C.ar    1  UNL1        0.0371
      9 C         141.3250  138.2618  163.7801 C.ar    1  UNL1        0.0030
     10 C         141.9687  137.9847  165.1063 C.ar    1  UNL1        0.0295
     11 C         143.3486  138.4988  165.3923 C.ar    1  UNL1        0.1406
     12 F         143.9922  138.2218  166.7185 F       1  UNL1       -0.2042
     13 C         144.0847  139.2899  164.3520 C.ar    1  UNL1        0.0362
     14 C         143.4410  139.5669  163.0257 C.ar    1  UNL1        0.0372
     15 BR        144.1771  140.3581  161.9854 Br      1  UNL1       -0.0491
     16 C         141.3311  137.8157  157.7462 C.ar    1  UNL1        0.1931
     17 N         140.3149  137.2917  156.7753 N.ar    1  UNL1       -0.2297
     18 C         141.0306  136.4390  155.7700 C.ar    1  UNL1        0.1067
     19 C         142.4893  136.4361  156.1196 C.ar    1  UNL1        0.0577
     20 S         142.6750  137.2869  157.3409 S.2     1  UNL1       -0.0586
     21 C         140.2164  141.3981  162.4285 C.2     1  UNL1        0.3447
     22 O         138.9543  141.2261  163.2207 O.2     1  UNL1       -0.2450
     23 O         141.1997  142.4656  162.8069 O.3     1  UNL1       -0.4455
     24 C         143.0139  142.9404  164.6051 C.3     1  UNL1        0.0513
     25 C         141.5864  142.6539  164.2439 C.3     1  UNL1        0.2089
     26 C         138.9289  141.9521  159.7760 C.3     1  UNL1        0.1408
     27 N         139.4069  143.1960  159.0874 N.3     1  UNL1       -0.2555
     28 C         140.1460  144.2458  159.8631 C.3     1  UNL1        0.1053
     29 C         140.6239  145.4898  159.1745 C.3     1  UNL1        0.1595
     30 O         140.3627  145.6840  157.7102 O.3     1  UNL1       -0.3503
     31 C         139.6236  144.6342  156.9346 C.3     1  UNL1        0.1675
     32 C         139.1456  143.3903  157.6231 C.3     1  UNL1        0.1665
     33 C         138.4065  142.3405  156.8475 C.2     1  UNL1        0.2576
     34 O         139.1638  141.2412  156.1632 O.2     1  UNL1       -0.2720
     35 N         136.9101  142.3900  156.7560 N.am    1  UNL1       -0.1875
     36 H         136.4131  143.1114  157.2051 H       1  UNL1        0.1762
     37 S         136.1710  141.3402  155.9803 S.O2    1  UNL1        0.0579
     38 C         135.4319  140.2904  155.2047 C.3     1  UNL1        0.1997
     39 O         136.1783  142.2283  154.7715 O.2     1  UNL1       -0.1544
     40 O         136.1637  140.4521  157.1892 O.2     1  UNL1       -0.1544
@<TRIPOS>BOND
     1    24    25    1
     2    25    23    1
     3    23    21    1
     4    21    22    2
     5    21     1    1
     6     1     2    2
     7     2    26    1
     8    26    27    1
     9    27    28    1
    10    28    29    1
    11    29    30    1
    12    30    31    1
    13    31    32    1
    14    32    33    1
    15    33    34    2
    16    33    35   am
    17    35    37    1
    18    37    38    1
    19    37    39    2
    20    37    40    2
    21     2     3    1
    22     3     4    1
    23     4    16    1
    24    16    17   ar
    25    17    18   ar
    26    18    19   ar
    27    19    20   ar
    28     4     5    2
    29     5     6    1
    30     6     8    1
    31     8     9   ar
    32     9    10   ar
    33    10    11   ar
    34    11    12    1
    35    11    13   ar
    36    13    14   ar
    37    14    15    1
    38     6     1    1
    39    14     8   ar
    40    32    27    1
    41    20    16   ar
    42    35    36    1
    43     3     7    1
@<TRIPOS>MOLECULE
*****
 40 43 0 0 0
SMALL
GASTEIGER

@<TRIPOS>ATOM
      1 C         139.1591  141.3545  160.6823 C.2     1  UNL1        0.1397
      2 C         139.2683  140.8039  159.2914 C.2     1  UNL1        0.1355
      3 N         139.4070  141.7361  158.1244 N.pl3   1  UNL1       -0.1998
      4 C         139.4366  143.2190  158.3485 C.2     1  UNL1        0.3442
      5 N         139.3274  143.7696  159.7395 N.2     1  UNL1       -0.0580
      6 C         139.1887  142.8373  160.9064 C.3     1  UNL1        0.2692
      7 H         139.4787  141.3747  157.2115 H       1  UNL1        0.2983
      8 C         139.0795  143.3880  162.2974 C.ar    1  UNL1        0.0371
      9 C         137.7293  143.6320  162.9036 C.ar    1  UNL1        0.0030
     10 C         137.6201  144.1826  164.2946 C.ar    1  UNL1        0.0295
     11 C         138.8611  144.4893  165.0794 C.ar    1  UNL1        0.1406
     12 F         138.7519  145.0400  166.4704 F       1  UNL1       -0.2042
     13 C         140.2113  144.2453  164.4733 C.ar    1  UNL1        0.0362
     14 C         140.3205  143.6947  163.0822 C.ar    1  UNL1        0.0372
     15 BR        141.6707  143.4507  162.4760 Br      1  UNL1       -0.0491
     16 C         139.5753  144.1512  157.1816 C.ar    1  UNL1        0.1931
     17 N         140.2240  145.5035  157.2057 N.ar    1  UNL1       -0.2297
     18 C         140.1393  146.0829  155.8247 C.ar    1  UNL1        0.1067
     19 C         139.4383  145.0887  154.9471 C.ar    1  UNL1        0.0577
     20 S         139.0898  143.8949  155.7857 S.2     1  UNL1       -0.0586
     21 C         139.0204  140.4222  161.8492 C.2     1  UNL1        0.3447
     22 O         137.6577  140.0468  162.3514 O.2     1  UNL1       -0.2450
     23 O         140.2443  139.8654  162.5140 O.3     1  UNL1       -0.4455
     24 C         141.0746  137.5024  163.2048 C.3     1  UNL1        0.0513
     25 C         140.1349  138.6562  163.3948 C.3     1  UNL1        0.2089
     26 C         139.2387  139.3210  159.0672 C.3     1  UNL1        0.1408
     27 N         140.4916  138.5970  158.6721 N.3     1  UNL1       -0.2555
     28 C         141.6298  138.4832  159.6425 C.3     1  UNL1        0.1053
     29 C         142.8827  137.7593  159.2474 C.3     1  UNL1        0.1595
     30 O         142.9975  137.1492  157.8819 O.3     1  UNL1       -0.3503
     31 C         141.8593  137.2630  156.9115 C.3     1  UNL1        0.1675
     32 C         140.6064  137.9869  157.3066 C.3     1  UNL1        0.1665
     33 C         139.4682  138.1007  156.3362 C.2     1  UNL1        0.2576
     34 O         138.5913  136.9140  156.0663 O.2     1  UNL1       -0.2720
     35 N         139.2070  139.4011  155.6358 N.am    1  UNL1       -0.1875
     36 H         139.7826  140.1799  155.8129 H       1  UNL1        0.1762
     37 S         138.0689  139.5149  154.6654 S.O2    1  UNL1        0.0579
     38 C         136.9307  139.6287  153.6950 C.3     1  UNL1        0.1997
     39 O         138.9880  139.1346  153.5427 O.2     1  UNL1       -0.1544
     40 O         137.1497  139.8952  155.7881 O.2     1  UNL1       -0.1544
@<TRIPOS>BOND
     1    24    25    1
     2    25    23    1
     3    23    21    1
     4    21    22    2
     5    21     1    1
     6     1     2    2
     7     2    26    1
     8    26    27    1
     9    27    28    1
    10    28    29    1
    11    29    30    1
    12    30    31    1
    13    31    32    1
    14    32    33    1
    15    33    34    2
    16    33    35   am
    17    35    37    1
    18    37    38    1
    19    37    39    2
    20    37    40    2
    21     2     3    1
    22     3     4    1
    23     4    16    1
    24    16    17   ar
    25    17    18   ar
    26    18    19   ar
    27    19    20   ar
    28     4     5    2
    29     5     6    1
    30     6     8    1
    31     8     9   ar
    32     9    10   ar
    33    10    11   ar
    34    11    12    1
    35    11    13   ar
    36    13    14   ar
    37    14    15    1
    38     6     1    1
    39    14     8   ar
    40    32    27    1
    41    20    16   ar
    42    35    36    1
    43     3     7    1
@<TRIPOS>MOLECULE
*****
 40 43 0 0 0
SMALL
GASTEIGER

@<TRIPOS>ATOM
      1 C         141.8576  142.7579  160.3073 C.2     1  UNL1        0.1397
      2 C         142.6850  142.5778  159.0692 C.2     1  UNL1        0.1355
      3 N         142.4055  143.4097  157.8527 N.pl3   1  UNL1       -0.1998
      4 C         141.2986  144.4217  157.8743 C.2     1  UNL1        0.3442
      5 N         140.4711  144.6018  159.1124 N.2     1  UNL1       -0.0580
      6 C         140.7506  143.7699  160.3289 C.3     1  UNL1        0.2692
      7 H         142.9486  143.2915  157.0401 H       1  UNL1        0.2983
      8 C         139.9231  143.9501  161.5670 C.ar    1  UNL1        0.0371
      9 C         140.3544  144.9252  162.6220 C.ar    1  UNL1        0.0030
     10 C         139.5270  145.1054  163.8600 C.ar    1  UNL1        0.0295
     11 C         138.2682  144.3104  164.0432 C.ar    1  UNL1        0.1406
     12 F         137.4408  144.4905  165.2812 F       1  UNL1       -0.2042
     13 C         137.8369  143.3352  162.9882 C.ar    1  UNL1        0.0362
     14 C         138.6644  143.1550  161.7501 C.ar    1  UNL1        0.0372
     15 BR        138.2331  142.1799  160.6951 Br      1  UNL1       -0.0491
     16 C         141.0191  145.2536  156.6578 C.ar    1  UNL1        0.1931
     17 N         140.0695  146.4122  156.5811 N.ar    1  UNL1       -0.2297
     18 C         140.1036  146.9476  155.1804 C.ar    1  UNL1        0.1067
     19 C         141.0743  146.1199  154.3913 C.ar    1  UNL1        0.0577
     20 S         141.6401  145.0729  155.3044 S.2     1  UNL1       -0.0586
     21 C         142.1371  141.9260  161.5238 C.2     1  UNL1        0.3447
     22 O         141.3613  140.6650  161.7644 O.2     1  UNL1       -0.2450
     23 O         143.1923  142.3551  162.4996 O.3     1  UNL1       -0.4455
     24 C         143.9175  144.7425  163.2240 C.3     1  UNL1        0.0513
     25 C         143.9825  143.6051  162.2482 C.3     1  UNL1        0.2089
     26 C         143.7920  141.5658  159.0476 C.3     1  UNL1        0.1408
     27 N         143.5769  140.2328  158.3942 N.3     1  UNL1       -0.2555
     28 C         142.8677  139.1393  159.1367 C.3     1  UNL1        0.1053
     29 C         142.6526  137.8063  158.4833 C.3     1  UNL1        0.1595
     30 O         143.1467  137.5668  157.0874 O.3     1  UNL1       -0.3503
     31 C         143.8559  138.6603  156.3449 C.3     1  UNL1        0.1675
     32 C         144.0710  139.9933  156.9983 C.3     1  UNL1        0.1665
     33 C         144.7803  141.0867  156.2558 C.2     1  UNL1        0.2576
     34 O         144.0026  142.2433  155.7010 O.2     1  UNL1       -0.2720
     35 N         146.2671  141.0238  156.0681 N.am    1  UNL1       -0.1875
     36 H         146.7775  140.2647  156.4322 H       1  UNL1        0.1762
     37 S         146.9763  142.1172  155.3256 S.O2    1  UNL1        0.0579
     38 C         147.6856  143.2107  154.5831 C.3     1  UNL1        0.1997
     39 O         147.2343  142.8291  156.6204 O.2     1  UNL1       -0.1544
     40 O         146.7184  141.4053  154.0307 O.2     1  UNL1       -0.1544
@<TRIPOS>BOND
     1    24    25    1
     2    25    23    1
     3    23    21    1
     4    21    22    2
     5    21     1    1
     6     1     2    2
     7     2    26    1
     8    26    27    1
     9    27    28    1
    10    28    29    1
    11    29    30    1
    12    30    31    1
    13    31    32    1
    14    32    33    1
    15    33    34    2
    16    33    35   am
    17    35    37    1
    18    37    38    1
    19    37    39    2
    20    37    40    2
    21     2     3    1
    22     3     4    1
    23     4    16    1
    24    16    17   ar
    25    17    18   ar
    26    18    19   ar
    27    19    20   ar
    28     4     5    2
    29     5     6    1
    30     6     8    1
    31     8     9   ar
    32     9    10   ar
    33    10    11   ar
    34    11    12    1
    35    11    13   ar
    36    13    14   ar
    37    14    15    1
    38     6     1    1
    39    14     8   ar
    40    32    27    1
    41    20    16   ar
    42    35    36    1
    43     3     7    1
@<TRIPOS>MOLECULE
*****
 40 43 0 0 0
SMALL
GASTEIGER

@<TRIPOS>ATOM
      1 C         142.1849  140.4166  160.9083 C.2     1  UNL1        0.1397
      2 C         142.9170  140.9537  159.7144 C.2     1  UNL1        0.1355
      3 N         143.1033  140.0938  158.4996 N.pl3   1  UNL1       -0.1998
      4 C         142.5576  138.6968  158.4787 C.2     1  UNL1        0.3442
      5 N         141.8255  138.1597  159.6726 N.2     1  UNL1       -0.0580
      6 C         141.6391  139.0196  160.8875 C.3     1  UNL1        0.2692
      7 H         143.5839  140.4463  157.7160 H       1  UNL1        0.2983
      8 C         140.9070  138.4825  162.0814 C.ar    1  UNL1        0.0371
      9 C         141.6703  137.8503  163.2074 C.ar    1  UNL1        0.0030
     10 C         140.9382  137.3132  164.4013 C.ar    1  UNL1        0.0295
     11 C         139.4427  137.4082  164.4693 C.ar    1  UNL1        0.1406
     12 F         138.7107  136.8711  165.6633 F       1  UNL1       -0.2042
     13 C         138.6794  138.0403  163.3434 C.ar    1  UNL1        0.0362
     14 C         139.4116  138.5775  162.1494 C.ar    1  UNL1        0.0372
     15 BR        138.6482  139.2096  161.0235 Br      1  UNL1       -0.0491
     16 C         142.7439  137.8368  157.2639 C.ar    1  UNL1        0.1931
     17 N         143.9700  137.7829  156.4015 N.ar    1  UNL1       -0.2297
     18 C         143.7208  136.7926  155.3027 C.ar    1  UNL1        0.1067
     19 C         142.3406  136.2344  155.4861 C.ar    1  UNL1        0.0577
     20 S         141.7369  136.8798  156.6982 S.2     1  UNL1       -0.0586
     21 C         141.9985  141.2765  162.1232 C.2     1  UNL1        0.3447
     22 O         143.1145  141.4267  163.1141 O.2     1  UNL1       -0.2450
     23 O         140.6962  141.9863  162.3471 O.3     1  UNL1       -0.4455
     24 C         140.0570  141.1742  164.7308 C.3     1  UNL1        0.0513
     25 C         140.2370  142.2884  163.7427 C.3     1  UNL1        0.2089
     26 C         143.4628  142.3508  159.7353 C.3     1  UNL1        0.1408
     27 N         142.6519  143.4812  159.1747 N.3     1  UNL1       -0.2555
     28 C         141.8655  144.3681  160.0939 C.3     1  UNL1        0.1053
     29 C         141.0545  145.4987  159.5332 C.3     1  UNL1        0.1595
     30 O         141.0299  145.7422  158.0534 O.3     1  UNL1       -0.3503
     31 C         141.8163  144.8553  157.1341 C.3     1  UNL1        0.1675
     32 C         142.6272  143.7248  157.6947 C.3     1  UNL1        0.1665
     33 C         143.4136  142.8379  156.7755 C.2     1  UNL1        0.2576
     34 O         142.7075  141.8192  155.9305 O.2     1  UNL1       -0.2720
     35 N         144.9059  142.9696  156.7011 N.am    1  UNL1       -0.1875
     36 H         145.3693  143.6382  157.2557 H       1  UNL1        0.1762
     37 S         145.6922  142.0827  155.7819 S.O2    1  UNL1        0.0579
     38 C         146.4786  141.1958  154.8626 C.3     1  UNL1        0.1997
     39 O         145.6704  140.9940  156.8136 O.2     1  UNL1       -0.1544
     40 O         145.7141  143.1713  154.7502 O.2     1  UNL1       -0.1544
@<TRIPOS>BOND
     1    24    25    1
     2    25    23    1
     3    23    21    1
     4    21    22    2
     5    21     1    1
     6     1     2    2
     7     2    26    1
     8    26    27    1
     9    27    28    1
    10    28    29    1
    11    29    30    1
    12    30    31    1
    13    31    32    1
    14    32    33    1
    15    33    34    2
    16    33    35   am
    17    35    37    1
    18    37    38    1
    19    37    39    2
    20    37    40    2
    21     2     3    1
    22     3     4    1
    23     4    16    1
    24    16    17   ar
    25    17    18   ar
    26    18    19   ar
    27    19    20   ar
    28     4     5    2
    29     5     6    1
    30     6     8    1
    31     8     9   ar
    32     9    10   ar
    33    10    11   ar
    34    11    12    1
    35    11    13   ar
    36    13    14   ar
    37    14    15    1
    38     6     1    1
    39    14     8   ar
    40    32    27    1
    41    20    16   ar
    42    35    36    1
    43     3     7    1
