@<TRIPOS>MOLECULE
*****
 33 38 0 0 0
SMALL
GASTEIGER

@<TRIPOS>ATOM
      1 C         140.5167  138.7067  160.6797 C.ar    1  UNL1        0.0670
      2 C         142.0074  138.7991  160.5412 C.ar    1  UNL1        0.0191
      3 C         142.6476  138.6282  159.1955 C.ar    1  UNL1        0.0203
      4 C         141.7970  138.3650  157.9883 C.ar    1  UNL1        0.0795
      5 C         140.3063  138.2727  158.1268 C.ar    1  UNL1        0.0396
      6 C         139.7302  138.0058  156.7678 C.ar    1  UNL1        0.1216
      7 N         140.8649  137.9332  155.7894 N.ar    1  UNL1       -0.1677
      8 N         142.1423  138.1552  156.5436 N.ar    1  UNL1       -0.2494
      9 C         139.6662  138.4435  159.4725 C.ar    1  UNL1        0.0207
     10 O         141.1057  136.7541  162.8797 O.2     1  UNL1       -0.2665
     11 C         140.1709  137.9013  163.1254 C.ar    1  UNL1        0.2679
     12 C         139.5307  138.0721  164.4711 C.ar    1  UNL1        0.0980
     13 C         138.5960  139.2193  164.7168 C.ar    1  UNL1        0.1453
     14 C         138.3015  140.1956  163.6168 C.ar    1  UNL1        0.0561
     15 C         138.9417  140.0247  162.2711 C.ar    1  UNL1        0.0860
     16 N         139.8764  138.8776  162.0254 N.ar    1  UNL1       -0.2729
     17 O         137.9558  139.3901  166.0625 O.3     1  UNL1       -0.4704
     18 C         138.7687  139.2023  167.3090 C.3     1  UNL1        0.2320
     19 C         139.3722  140.3908  167.9970 C.ar    1  UNL1        0.0212
     20 C         139.2622  140.5312  169.4863 C.ar    1  UNL1       -0.0007
     21 C         139.8658  141.7197  170.1742 C.ar    1  UNL1       -0.0002
     22 C         140.5793  142.7678  169.3728 C.ar    1  UNL1       -0.0000
     23 C         140.6893  142.6274  167.8834 C.ar    1  UNL1       -0.0002
     24 C         140.0858  141.4390  167.1956 C.ar    1  UNL1       -0.0007
     25 C         143.5225  138.1656  155.9565 C.3     1  UNL1        0.1447
     26 C         144.0877  136.9169  155.3470 C.3     1  UNL1        0.0989
     27 N         143.4733  135.5849  155.6603 N.3     1  UNL1       -0.2679
     28 C         142.5132  134.8301  154.7894 C.3     1  UNL1        0.1021
     29 C         142.1576  133.5525  155.4903 C.3     1  UNL1        0.1326
     30 C         142.9708  134.8087  155.5954 C.3     1  UNL1        0.0495
     31 C         143.7110  134.7738  156.8995 C.3     1  UNL1        0.0899
     32 C         143.3554  133.4962  157.6004 C.3     1  UNL1        0.1580
     33 O         142.3953  132.7414  156.7294 O.3     1  UNL1       -0.3533
@<TRIPOS>BOND
     1    10    11    2
     2    11    12   ar
     3    12    13   ar
     4    13    17    1
     5    17    18    1
     6    18    19    1
     7    19    20   ar
     8    20    21   ar
     9    21    22   ar
    10    22    23   ar
    11    23    24   ar
    12    13    14   ar
    13    14    15   ar
    14    15    16   ar
    15    16     1    1
    16     1     2   ar
    17     2     3   ar
    18     3     4   ar
    19     4     5   ar
    20     5     6   ar
    21     6     7   ar
    22     7     8   ar
    23     8    25    1
    24    25    26    1
    25    26    27    1
    26    27    28    1
    27    28    29    1
    28    29    30    1
    29    30    31    1
    30    31    32    1
    31    32    33    1
    32     5     9   ar
    33    16    11   ar
    34     9     1   ar
    35    24    19   ar
    36     8     4   ar
    37    31    27    1
    38    33    29    1
@<TRIPOS>MOLECULE
*****
 33 38 0 0 0
SMALL
GASTEIGER

@<TRIPOS>ATOM
      1 C         140.5745  138.5299  160.5924 C.ar    1  UNL1        0.0670
      2 C         142.0699  138.4814  160.4871 C.ar    1  UNL1        0.0191
      3 C         142.7216  138.2787  159.1514 C.ar    1  UNL1        0.0203
      4 C         141.8777  138.1245  157.9209 C.ar    1  UNL1        0.0795
      5 C         140.3822  138.1730  158.0261 C.ar    1  UNL1        0.0396
      6 C         139.8146  137.9920  156.6495 C.ar    1  UNL1        0.1216
      7 N         140.9592  137.8317  155.6935 N.ar    1  UNL1       -0.1677
      8 N         142.2343  137.9136  156.4792 N.ar    1  UNL1       -0.2494
      9 C         139.7306  138.3757  159.3619 C.ar    1  UNL1        0.0207
     10 O         139.2336  141.1375  161.2270 O.2     1  UNL1       -0.2665
     11 C         139.2523  140.0363  162.2455 C.ar    1  UNL1        0.2679
     12 C         138.6007  140.2391  163.5812 C.ar    1  UNL1        0.0980
     13 C         138.6194  139.1379  164.5997 C.ar    1  UNL1        0.1453
     14 C         139.2898  137.8342  164.2824 C.ar    1  UNL1        0.0561
     15 C         139.9415  137.6315  162.9466 C.ar    1  UNL1        0.0860
     16 N         139.9228  138.7325  161.9282 N.ar    1  UNL1       -0.2729
     17 O         137.9677  139.3407  165.9354 O.3     1  UNL1       -0.4704
     18 C         138.7602  139.1455  167.1939 C.3     1  UNL1        0.2320
     19 C         139.3593  140.3291  167.8941 C.ar    1  UNL1        0.0212
     20 C         139.2441  140.4563  169.3842 C.ar    1  UNL1       -0.0007
     21 C         139.8431  141.6399  170.0844 C.ar    1  UNL1       -0.0002
     22 C         140.5575  142.6961  169.2945 C.ar    1  UNL1       -0.0000
     23 C         140.6728  142.5689  167.8044 C.ar    1  UNL1       -0.0002
     24 C         140.0737  141.3853  167.1042 C.ar    1  UNL1       -0.0007
     25 C         143.6224  137.8038  155.9212 C.3     1  UNL1        0.1447
     26 C         144.0927  136.5080  155.3299 C.3     1  UNL1        0.0989
     27 N         143.5113  135.2106  155.8081 N.3     1  UNL1       -0.2679
     28 C         143.9311  134.4551  157.0340 C.3     1  UNL1        0.1021
     29 C         143.0874  133.2184  157.1279 C.3     1  UNL1        0.1326
     30 C         143.3494  134.4497  156.3122 C.3     1  UNL1        0.0495
     31 C         142.4082  134.4409  155.1443 C.3     1  UNL1        0.0899
     32 C         141.5645  133.2042  155.2382 C.3     1  UNL1        0.1580
     33 O         141.9843  132.4487  156.4643 O.3     1  UNL1       -0.3533
@<TRIPOS>BOND
     1    10    11    2
     2    11    12   ar
     3    12    13   ar
     4    13    17    1
     5    17    18    1
     6    18    19    1
     7    19    20   ar
     8    20    21   ar
     9    21    22   ar
    10    22    23   ar
    11    23    24   ar
    12    13    14   ar
    13    14    15   ar
    14    15    16   ar
    15    16     1    1
    16     1     2   ar
    17     2     3   ar
    18     3     4   ar
    19     4     5   ar
    20     5     6   ar
    21     6     7   ar
    22     7     8   ar
    23     8    25    1
    24    25    26    1
    25    26    27    1
    26    27    28    1
    27    28    29    1
    28    29    30    1
    29    30    31    1
    30    31    32    1
    31    32    33    1
    32     5     9   ar
    33    16    11   ar
    34     9     1   ar
    35    24    19   ar
    36     8     4   ar
    37    31    27    1
    38    33    29    1
@<TRIPOS>MOLECULE
*****
 33 38 0 0 0
SMALL
GASTEIGER

@<TRIPOS>ATOM
      1 C         141.7258  143.6539  161.3146 C.ar    1  UNL1        0.0670
      2 C         140.7944  142.5744  161.7803 C.ar    1  UNL1        0.0191
      3 C         140.9549  141.9848  163.1502 C.ar    1  UNL1        0.0203
      4 C         142.0469  142.4748  164.0544 C.ar    1  UNL1        0.0795
      5 C         142.9784  143.5543  163.5887 C.ar    1  UNL1        0.0396
      6 C         143.9539  143.8332  164.6934 C.ar    1  UNL1        0.1216
      7 N         143.6254  142.9260  165.8419 N.ar    1  UNL1       -0.1677
      8 N         142.4468  142.0864  165.4470 N.ar    1  UNL1       -0.2494
      9 C         142.8178  144.1439  162.2188 C.ar    1  UNL1        0.0207
     10 O         139.5786  145.6841  160.7976 O.2     1  UNL1       -0.2665
     11 C         140.4917  145.2586  159.6862 C.ar    1  UNL1        0.2679
     12 C         140.3312  145.8483  158.3163 C.ar    1  UNL1        0.0980
     13 C         141.2443  145.4228  157.2049 C.ar    1  UNL1        0.1453
     14 C         142.3180  144.4077  157.4634 C.ar    1  UNL1        0.0561
     15 C         142.4785  143.8180  158.8334 C.ar    1  UNL1        0.0860
     16 N         141.5653  144.2435  159.9447 N.ar    1  UNL1       -0.2729
     17 O         141.0838  146.0124  155.8351 O.3     1  UNL1       -0.4704
     18 C         139.7340  146.4728  155.3702 C.3     1  UNL1        0.2320
     19 C         139.4276  147.9391  155.2921 C.ar    1  UNL1        0.0212
     20 C         139.8776  148.7371  154.1044 C.ar    1  UNL1       -0.0007
     21 C         139.5711  150.2034  154.0263 C.ar    1  UNL1       -0.0002
     22 C         138.8147  150.8716  155.1359 C.ar    1  UNL1       -0.0000
     23 C         138.3647  150.0736  156.3236 C.ar    1  UNL1       -0.0002
     24 C         138.6711  148.6074  156.4017 C.ar    1  UNL1       -0.0007
     25 C         141.7843  141.0419  166.2957 C.3     1  UNL1        0.1447
     26 C         140.4940  141.3515  166.9950 C.3     1  UNL1        0.0989
     27 N         140.5011  141.7463  168.4420 N.3     1  UNL1       -0.2679
     28 C         140.4300  143.1470  168.9741 C.3     1  UNL1        0.1021
     29 C         140.4655  143.0762  170.4720 C.3     1  UNL1        0.1326
     30 C         140.4875  142.2543  169.2174 C.3     1  UNL1        0.0495
     31 C         140.5805  140.8099  169.6111 C.3     1  UNL1        0.0899
     32 C         140.6159  140.7391  171.1091 C.3     1  UNL1        0.1580
     33 O         140.5449  142.1399  171.6411 O.3     1  UNL1       -0.3533
@<TRIPOS>BOND
     1    10    11    2
     2    11    12   ar
     3    12    13   ar
     4    13    17    1
     5    17    18    1
     6    18    19    1
     7    19    20   ar
     8    20    21   ar
     9    21    22   ar
    10    22    23   ar
    11    23    24   ar
    12    13    14   ar
    13    14    15   ar
    14    15    16   ar
    15    16     1    1
    16     1     2   ar
    17     2     3   ar
    18     3     4   ar
    19     4     5   ar
    20     5     6   ar
    21     6     7   ar
    22     7     8   ar
    23     8    25    1
    24    25    26    1
    25    26    27    1
    26    27    28    1
    27    28    29    1
    28    29    30    1
    29    30    31    1
    30    31    32    1
    31    32    33    1
    32     5     9   ar
    33    16    11   ar
    34     9     1   ar
    35    24    19   ar
    36     8     4   ar
    37    31    27    1
    38    33    29    1
@<TRIPOS>MOLECULE
*****
 33 38 0 0 0
SMALL
GASTEIGER

@<TRIPOS>ATOM
      1 C         141.7725  143.7308  161.4019 C.ar    1  UNL1        0.0670
      2 C         140.9880  142.5365  161.8584 C.ar    1  UNL1        0.0191
      3 C         141.2882  141.9045  163.1851 C.ar    1  UNL1        0.0203
      4 C         142.3728  142.4667  164.0555 C.ar    1  UNL1        0.0795
      5 C         143.1572  143.6609  163.5991 C.ar    1  UNL1        0.0396
      6 C         144.1600  143.9916  164.6645 C.ar    1  UNL1        0.1216
      7 N         143.9953  143.0017  165.7794 N.ar    1  UNL1       -0.1677
      8 N         142.8907  142.0592  165.4030 N.ar    1  UNL1       -0.2494
      9 C         142.8571  144.2930  162.2723 C.ar    1  UNL1        0.0207
     10 O         139.5500  145.7315  161.1621 O.2     1  UNL1       -0.2665
     11 C         140.3611  145.3633  159.9552 C.ar    1  UNL1        0.2679
     12 C         140.0609  145.9954  158.6284 C.ar    1  UNL1        0.0980
     13 C         140.8720  145.6271  157.4215 C.ar    1  UNL1        0.1453
     14 C         141.9833  144.6267  157.5414 C.ar    1  UNL1        0.0561
     15 C         142.2834  143.9946  158.8683 C.ar    1  UNL1        0.0860
     16 N         141.4723  144.3629  160.0751 N.ar    1  UNL1       -0.2729
     17 O         140.5719  146.2592  156.0948 O.3     1  UNL1       -0.4704
     18 C         139.2458  146.9204  155.8619 C.3     1  UNL1        0.2320
     19 C         139.1899  148.3317  155.3566 C.ar    1  UNL1        0.0212
     20 C         138.5280  149.3972  156.1793 C.ar    1  UNL1       -0.0007
     21 C         138.4721  150.8084  155.6740 C.ar    1  UNL1       -0.0002
     22 C         139.0780  151.1541  154.3460 C.ar    1  UNL1       -0.0000
     23 C         139.7398  150.0886  153.5234 C.ar    1  UNL1       -0.0002
     24 C         139.7958  148.6774  154.0287 C.ar    1  UNL1       -0.0007
     25 C         142.3917  140.9109  166.2291 C.3     1  UNL1        0.1447
     26 C         142.8875  139.5213  165.9587 C.3     1  UNL1        0.0989
     27 N         142.5764  138.8551  164.6513 N.3     1  UNL1       -0.2679
     28 C         143.4587  138.8385  163.4384 C.3     1  UNL1        0.1021
     29 C         142.7561  138.0616  162.3647 C.3     1  UNL1        0.1326
     30 C         142.6451  138.5520  163.7780 C.3     1  UNL1        0.0495
     31 C         141.3285  138.0885  164.3273 C.3     1  UNL1        0.0899
     32 C         140.6259  137.3116  163.2536 C.3     1  UNL1        0.1580
     33 O         141.5083  137.2951  162.0406 O.3     1  UNL1       -0.3533
@<TRIPOS>BOND
     1    10    11    2
     2    11    12   ar
     3    12    13   ar
     4    13    17    1
     5    17    18    1
     6    18    19    1
     7    19    20   ar
     8    20    21   ar
     9    21    22   ar
    10    22    23   ar
    11    23    24   ar
    12    13    14   ar
    13    14    15   ar
    14    15    16   ar
    15    16     1    1
    16     1     2   ar
    17     2     3   ar
    18     3     4   ar
    19     4     5   ar
    20     5     6   ar
    21     6     7   ar
    22     7     8   ar
    23     8    25    1
    24    25    26    1
    25    26    27    1
    26    27    28    1
    27    28    29    1
    28    29    30    1
    29    30    31    1
    30    31    32    1
    31    32    33    1
    32     5     9   ar
    33    16    11   ar
    34     9     1   ar
    35    24    19   ar
    36     8     4   ar
    37    31    27    1
    38    33    29    1
@<TRIPOS>MOLECULE
*****
 33 38 0 0 0
SMALL
GASTEIGER

@<TRIPOS>ATOM
      1 C         141.1974  139.4167  161.1658 C.ar    1  UNL1        0.0670
      2 C         141.3524  140.8976  161.3473 C.ar    1  UNL1        0.0191
      3 C         141.3478  141.4888  162.7258 C.ar    1  UNL1        0.0203
      4 C         141.1881  140.5992  163.9229 C.ar    1  UNL1        0.0795
      5 C         141.0331  139.1183  163.7415 C.ar    1  UNL1        0.0396
      6 C         140.8949  138.4969  165.0997 C.ar    1  UNL1        0.1216
      7 N         140.9646  139.5937  166.1206 N.ar    1  UNL1       -0.1677
      8 N         141.1458  140.8930  165.3933 N.ar    1  UNL1       -0.2494
      9 C         141.0377  138.5271  162.3630 C.ar    1  UNL1        0.0207
     10 O         143.7961  138.6959  159.8516 O.2     1  UNL1       -0.2665
     11 C         142.5013  138.4650  159.1301 C.ar    1  UNL1        0.2679
     12 C         142.5060  137.8737  157.7516 C.ar    1  UNL1        0.0980
     13 C         141.2112  137.6428  157.0302 C.ar    1  UNL1        0.1453
     14 C         139.9119  138.0032  157.6873 C.ar    1  UNL1        0.0561
     15 C         139.9073  138.5945  159.0659 C.ar    1  UNL1        0.0860
     16 N         141.2020  138.8254  159.7873 N.ar    1  UNL1       -0.2729
     17 O         141.2159  137.0515  155.6517 O.3     1  UNL1       -0.4704
     18 C         142.3808  136.2247  155.1942 C.3     1  UNL1        0.2320
     19 C         142.5338  134.8126  155.6768 C.ar    1  UNL1        0.0212
     20 C         143.6275  134.4644  156.6424 C.ar    1  UNL1       -0.0007
     21 C         143.7805  133.0524  157.1250 C.ar    1  UNL1       -0.0002
     22 C         142.8397  131.9887  156.6419 C.ar    1  UNL1       -0.0000
     23 C         141.7460  132.3369  155.6762 C.ar    1  UNL1       -0.0002
     24 C         141.5930  133.7489  155.1937 C.ar    1  UNL1       -0.0007
     25 C         141.2640  142.2482  166.0253 C.3     1  UNL1        0.1447
     26 C         140.0530  143.1238  166.1543 C.3     1  UNL1        0.0989
     27 N         139.3577  143.6281  164.9246 N.3     1  UNL1       -0.2679
     28 C         138.0181  143.1779  164.4219 C.3     1  UNL1        0.1021
     29 C         137.7123  143.9427  163.1683 C.3     1  UNL1        0.1326
     30 C         138.7292  143.7483  164.2538 C.3     1  UNL1        0.0495
     31 C         139.8799  144.6712  163.9816 C.3     1  UNL1        0.0899
     32 C         139.5742  145.4360  162.7279 C.3     1  UNL1        0.1580
     33 O         138.2345  144.9857  162.2253 O.3     1  UNL1       -0.3533
@<TRIPOS>BOND
     1    10    11    2
     2    11    12   ar
     3    12    13   ar
     4    13    17    1
     5    17    18    1
     6    18    19    1
     7    19    20   ar
     8    20    21   ar
     9    21    22   ar
    10    22    23   ar
    11    23    24   ar
    12    13    14   ar
    13    14    15   ar
    14    15    16   ar
    15    16     1    1
    16     1     2   ar
    17     2     3   ar
    18     3     4   ar
    19     4     5   ar
    20     5     6   ar
    21     6     7   ar
    22     7     8   ar
    23     8    25    1
    24    25    26    1
    25    26    27    1
    26    27    28    1
    27    28    29    1
    28    29    30    1
    29    30    31    1
    30    31    32    1
    31    32    33    1
    32     5     9   ar
    33    16    11   ar
    34     9     1   ar
    35    24    19   ar
    36     8     4   ar
    37    31    27    1
    38    33    29    1
@<TRIPOS>MOLECULE
*****
 33 38 0 0 0
SMALL
GASTEIGER

@<TRIPOS>ATOM
      1 C         141.1540  138.9228  161.1631 C.ar    1  UNL1        0.0670
      2 C         140.9818  137.8574  162.2048 C.ar    1  UNL1        0.0191
      3 C         140.9267  138.2301  163.6567 C.ar    1  UNL1        0.0203
      4 C         141.0439  139.6681  164.0669 C.ar    1  UNL1        0.0795
      5 C         141.2162  140.7335  163.0252 C.ar    1  UNL1        0.0396
      6 C         141.3035  142.0570  163.7258 C.ar    1  UNL1        0.1216
      7 N         141.1853  141.8095  165.2005 N.ar    1  UNL1       -0.1677
      8 N         141.0249  140.3331  165.4114 N.ar    1  UNL1       -0.2494
      9 C         141.2712  140.3609  161.5733 C.ar    1  UNL1        0.0207
     10 O         143.8053  138.5537  159.8087 O.2     1  UNL1       -0.2665
     11 C         142.5347  138.3656  159.0339 C.ar    1  UNL1        0.2679
     12 C         142.5898  137.9930  157.5820 C.ar    1  UNL1        0.0980
     13 C         141.3191  137.8050  156.8072 C.ar    1  UNL1        0.1453
     14 C         139.9935  137.9895  157.4844 C.ar    1  UNL1        0.0561
     15 C         139.9385  138.3622  158.9364 C.ar    1  UNL1        0.0860
     16 N         141.2090  138.5502  159.7111 N.ar    1  UNL1       -0.2729
     17 O         141.3742  137.4324  155.3553 O.3     1  UNL1       -0.4704
     18 C         142.4444  136.5060  154.8589 C.3     1  UNL1        0.2320
     19 C         142.5127  135.0971  155.3692 C.ar    1  UNL1        0.0212
     20 C         143.6065  134.6935  156.3131 C.ar    1  UNL1       -0.0007
     21 C         143.6748  133.2847  156.8234 C.ar    1  UNL1       -0.0002
     22 C         142.6494  132.2794  156.3898 C.ar    1  UNL1       -0.0000
     23 C         141.5557  132.6829  155.4460 C.ar    1  UNL1       -0.0002
     24 C         141.4874  134.0918  154.9357 C.ar    1  UNL1       -0.0007
     25 C         140.8721  139.6429  166.7343 C.3     1  UNL1        0.1447
     26 C         139.7673  140.0437  167.6663 C.3     1  UNL1        0.0989
     27 N         140.0928  140.5806  169.0285 N.3     1  UNL1       -0.2679
     28 C         140.8138  139.8430  170.1176 C.3     1  UNL1        0.1021
     29 C         140.9211  140.7558  171.3031 C.3     1  UNL1        0.1326
     30 C         140.4092  140.6475  169.8973 C.3     1  UNL1        0.0495
     31 C         139.7546  141.9492  169.5409 C.3     1  UNL1        0.0899
     32 C         139.8619  142.8620  170.7263 C.3     1  UNL1        0.1580
     33 O         140.5830  142.1243  171.8155 O.3     1  UNL1       -0.3533
@<TRIPOS>BOND
     1    10    11    2
     2    11    12   ar
     3    12    13   ar
     4    13    17    1
     5    17    18    1
     6    18    19    1
     7    19    20   ar
     8    20    21   ar
     9    21    22   ar
    10    22    23   ar
    11    23    24   ar
    12    13    14   ar
    13    14    15   ar
    14    15    16   ar
    15    16     1    1
    16     1     2   ar
    17     2     3   ar
    18     3     4   ar
    19     4     5   ar
    20     5     6   ar
    21     6     7   ar
    22     7     8   ar
    23     8    25    1
    24    25    26    1
    25    26    27    1
    26    27    28    1
    27    28    29    1
    28    29    30    1
    29    30    31    1
    30    31    32    1
    31    32    33    1
    32     5     9   ar
    33    16    11   ar
    34     9     1   ar
    35    24    19   ar
    36     8     4   ar
    37    31    27    1
    38    33    29    1
@<TRIPOS>MOLECULE
*****
 33 38 0 0 0
SMALL
GASTEIGER

@<TRIPOS>ATOM
      1 C         140.5149  138.9671  160.6144 C.ar    1  UNL1        0.0670
      2 C         140.7447  140.4048  160.9749 C.ar    1  UNL1        0.0191
      3 C         140.3785  140.9030  162.3415 C.ar    1  UNL1        0.0203
      4 C         139.7826  139.9635  163.3476 C.ar    1  UNL1        0.0795
      5 C         139.5528  138.5258  162.9870 C.ar    1  UNL1        0.0396
      6 C         138.9535  137.8392  164.1784 C.ar    1  UNL1        0.1216
      7 N         138.8129  138.8526  165.2754 N.ar    1  UNL1       -0.1677
      8 N         139.3253  140.1656  164.7619 N.ar    1  UNL1       -0.2494
      9 C         139.9189  138.0276  161.6204 C.ar    1  UNL1        0.0207
     10 O         143.3679  138.2917  159.9786 O.2     1  UNL1       -0.2665
     11 C         142.3075  138.1311  158.9298 C.ar    1  UNL1        0.2679
     12 C         142.6737  137.6328  157.5632 C.ar    1  UNL1        0.0980
     13 C         141.6133  137.4722  156.5144 C.ar    1  UNL1        0.1453
     14 C         140.1868  137.8100  156.8323 C.ar    1  UNL1        0.0561
     15 C         139.8207  138.3082  158.1990 C.ar    1  UNL1        0.0860
     16 N         140.8810  138.4688  159.2477 N.ar    1  UNL1       -0.2729
     17 O         141.9795  136.9740  155.1478 O.3     1  UNL1       -0.4704
     18 C         143.1059  135.9974  154.9826 C.3     1  UNL1        0.2320
     19 C         142.9770  134.6049  155.5254 C.ar    1  UNL1        0.0212
     20 C         141.9717  133.6604  154.9362 C.ar    1  UNL1       -0.0007
     21 C         141.8429  132.2680  155.4790 C.ar    1  UNL1       -0.0002
     22 C         142.7194  131.8202  156.6109 C.ar    1  UNL1       -0.0000
     23 C         143.7247  132.7647  157.2000 C.ar    1  UNL1       -0.0002
     24 C         143.8535  134.1571  156.6573 C.ar    1  UNL1       -0.0007
     25 C         139.3722  141.4542  165.5281 C.3     1  UNL1        0.1447
     26 C         140.4883  141.7105  166.4970 C.3     1  UNL1        0.0989
     27 N         140.2696  141.4995  167.9659 N.3     1  UNL1       -0.2679
     28 C         139.9985  140.1858  168.6371 C.3     1  UNL1        0.1021
     29 C         139.8450  140.4395  170.1075 C.3     1  UNL1        0.1326
     30 C         140.1075  141.0946  168.7838 C.3     1  UNL1        0.0495
     31 C         140.2837  142.5652  169.0214 C.3     1  UNL1        0.0899
     32 C         140.1302  142.8189  170.4918 C.3     1  UNL1        0.1580
     33 O         139.8591  141.5050  171.1630 O.3     1  UNL1       -0.3533
@<TRIPOS>BOND
     1    10    11    2
     2    11    12   ar
     3    12    13   ar
     4    13    17    1
     5    17    18    1
     6    18    19    1
     7    19    20   ar
     8    20    21   ar
     9    21    22   ar
    10    22    23   ar
    11    23    24   ar
    12    13    14   ar
    13    14    15   ar
    14    15    16   ar
    15    16     1    1
    16     1     2   ar
    17     2     3   ar
    18     3     4   ar
    19     4     5   ar
    20     5     6   ar
    21     6     7   ar
    22     7     8   ar
    23     8    25    1
    24    25    26    1
    25    26    27    1
    26    27    28    1
    27    28    29    1
    28    29    30    1
    29    30    31    1
    30    31    32    1
    31    32    33    1
    32     5     9   ar
    33    16    11   ar
    34     9     1   ar
    35    24    19   ar
    36     8     4   ar
    37    31    27    1
    38    33    29    1
@<TRIPOS>MOLECULE
*****
 33 38 0 0 0
SMALL
GASTEIGER

@<TRIPOS>ATOM
      1 C         140.0512  140.0015  160.0704 C.ar    1  UNL1        0.0670
      2 C         140.0424  141.4821  159.8302 C.ar    1  UNL1        0.0191
      3 C         139.4615  142.4054  160.8597 C.ar    1  UNL1        0.0203
      4 C         138.8893  141.8481  162.1294 C.ar    1  UNL1        0.0795
      5 C         138.8981  140.3676  162.3696 C.ar    1  UNL1        0.0396
      6 C         138.2676  140.1111  163.7062 C.ar    1  UNL1        0.1216
      7 N         137.8692  141.4332  164.2922 N.ar    1  UNL1       -0.1677
      8 N         138.2535  142.5068  163.3177 N.ar    1  UNL1       -0.2494
      9 C         139.4790  139.4442  161.3400 C.ar    1  UNL1        0.0207
     10 O         142.9044  139.1036  160.3002 O.2     1  UNL1       -0.2665
     11 C         142.0587  138.6291  159.1557 C.ar    1  UNL1        0.2679
     12 C         142.6397  137.7058  158.1263 C.ar    1  UNL1        0.0980
     13 C         141.7940  137.2313  156.9818 C.ar    1  UNL1        0.1453
     14 C         140.3674  137.6803  156.8668 C.ar    1  UNL1        0.0561
     15 C         139.7864  138.6037  157.8964 C.ar    1  UNL1        0.0860
     16 N         140.6321  139.0781  159.0408 N.ar    1  UNL1       -0.2729
     17 O         142.3749  136.3080  155.9523 O.3     1  UNL1       -0.4704
     18 C         142.0145  134.8520  155.9621 C.3     1  UNL1        0.2320
     19 C         143.0533  133.8244  156.3013 C.ar    1  UNL1        0.0212
     20 C         143.3790  132.7357  155.3222 C.ar    1  UNL1       -0.0007
     21 C         144.4177  131.7081  155.6614 C.ar    1  UNL1       -0.0002
     22 C         145.1308  131.7693  156.9796 C.ar    1  UNL1       -0.0000
     23 C         144.8052  132.8580  157.9587 C.ar    1  UNL1       -0.0002
     24 C         143.7664  133.8856  157.6195 C.ar    1  UNL1       -0.0007
     25 C         138.0394  143.9802  163.4995 C.3     1  UNL1        0.1447
     26 C         139.0130  144.7854  164.3081 C.3     1  UNL1        0.0989
     27 N         140.4879  144.5783  164.1298 N.3     1  UNL1       -0.2679
     28 C         141.3832  145.3580  163.2131 C.3     1  UNL1        0.1021
     29 C         142.7751  144.8168  163.3537 C.3     1  UNL1        0.1326
     30 C         141.3615  144.6694  163.8334 C.3     1  UNL1        0.0495
     31 C         141.3264  143.5551  164.8369 C.3     1  UNL1        0.0899
     32 C         142.7183  143.0139  164.9775 C.3     1  UNL1        0.1580
     33 O         143.6136  143.7937  164.0607 O.3     1  UNL1       -0.3533
@<TRIPOS>BOND
     1    10    11    2
     2    11    12   ar
     3    12    13   ar
     4    13    17    1
     5    17    18    1
     6    18    19    1
     7    19    20   ar
     8    20    21   ar
     9    21    22   ar
    10    22    23   ar
    11    23    24   ar
    12    13    14   ar
    13    14    15   ar
    14    15    16   ar
    15    16     1    1
    16     1     2   ar
    17     2     3   ar
    18     3     4   ar
    19     4     5   ar
    20     5     6   ar
    21     6     7   ar
    22     7     8   ar
    23     8    25    1
    24    25    26    1
    25    26    27    1
    26    27    28    1
    27    28    29    1
    28    29    30    1
    29    30    31    1
    30    31    32    1
    31    32    33    1
    32     5     9   ar
    33    16    11   ar
    34     9     1   ar
    35    24    19   ar
    36     8     4   ar
    37    31    27    1
    38    33    29    1
@<TRIPOS>MOLECULE
*****
 33 38 0 0 0
SMALL
GASTEIGER

@<TRIPOS>ATOM
      1 C         140.1771  143.9354  160.8873 C.ar    1  UNL1        0.0670
      2 C         140.3200  145.3836  160.5237 C.ar    1  UNL1        0.0191
      3 C         140.2691  145.8041  159.0848 C.ar    1  UNL1        0.0203
      4 C         140.0752  144.7764  158.0095 C.ar    1  UNL1        0.0795
      5 C         139.9323  143.3282  158.3731 C.ar    1  UNL1        0.0396
      6 C         139.7537  142.5474  157.1049 C.ar    1  UNL1        0.1216
      7 N         139.7863  143.5130  155.9575 N.ar    1  UNL1       -0.1677
      8 N         139.9849  144.8906  156.5165 N.ar    1  UNL1       -0.2494
      9 C         139.9833  142.9077  159.8120 C.ar    1  UNL1        0.0207
     10 O         137.6803  143.9717  162.5500 O.2     1  UNL1       -0.2665
     11 C         138.9797  143.5330  163.1576 C.ar    1  UNL1        0.2679
     12 C         139.0306  143.1125  164.5965 C.ar    1  UNL1        0.0980
     13 C         140.3300  142.6738  165.2042 C.ar    1  UNL1        0.1453
     14 C         141.5784  142.6556  164.3729 C.ar    1  UNL1        0.0561
     15 C         141.5274  143.0762  162.9339 C.ar    1  UNL1        0.0860
     16 N         140.2281  143.5149  162.3263 N.ar    1  UNL1       -0.2729
     17 O         140.3809  142.2532  166.6431 O.3     1  UNL1       -0.4704
     18 C         139.8793  140.8984  167.0467 C.3     1  UNL1        0.2320
     19 C         140.2358  139.6925  166.2288 C.ar    1  UNL1        0.0212
     20 C         141.6739  139.3056  166.0504 C.ar    1  UNL1       -0.0007
     21 C         142.0303  138.0997  165.2326 C.ar    1  UNL1       -0.0002
     22 C         140.9484  137.2807  164.5932 C.ar    1  UNL1       -0.0000
     23 C         139.5102  137.6676  164.7717 C.ar    1  UNL1       -0.0002
     24 C         139.1539  138.8735  165.5895 C.ar    1  UNL1       -0.0007
     25 C         140.0772  146.1596  155.7221 C.3     1  UNL1        0.1447
     26 C         138.9502  147.1490  155.7557 C.3     1  UNL1        0.0989
     27 N         139.1240  148.5050  155.1385 N.3     1  UNL1       -0.2679
     28 C         139.8224  148.8019  153.8446 C.3     1  UNL1        0.1021
     29 C         139.7600  150.2826  153.6133 C.3     1  UNL1        0.1326
     30 C         139.3669  149.1839  154.5559 C.3     1  UNL1        0.0495
     31 C         138.6299  149.8023  155.7068 C.3     1  UNL1        0.0899
     32 C         138.5674  151.2830  155.4754 C.3     1  UNL1        0.1580
     33 O         139.2659  151.5798  154.1814 O.3     1  UNL1       -0.3533
@<TRIPOS>BOND
     1    10    11    2
     2    11    12   ar
     3    12    13   ar
     4    13    17    1
     5    17    18    1
     6    18    19    1
     7    19    20   ar
     8    20    21   ar
     9    21    22   ar
    10    22    23   ar
    11    23    24   ar
    12    13    14   ar
    13    14    15   ar
    14    15    16   ar
    15    16     1    1
    16     1     2   ar
    17     2     3   ar
    18     3     4   ar
    19     4     5   ar
    20     5     6   ar
    21     6     7   ar
    22     7     8   ar
    23     8    25    1
    24    25    26    1
    25    26    27    1
    26    27    28    1
    27    28    29    1
    28    29    30    1
    29    30    31    1
    30    31    32    1
    31    32    33    1
    32     5     9   ar
    33    16    11   ar
    34     9     1   ar
    35    24    19   ar
    36     8     4   ar
    37    31    27    1
    38    33    29    1
