@<TRIPOS>MOLECULE
*****
 33 39 0 0 0
SMALL
GASTEIGER

@<TRIPOS>ATOM
      1 C         141.8569  143.3112  164.0156 C.ar    1  UNL1        0.0001
      2 C         143.1570  143.6481  164.6838 C.ar    1  UNL1        0.0031
      3 C         143.5010  143.0336  166.0081 C.ar    1  UNL1        0.0366
      4 C         142.5450  142.0821  166.6645 C.ar    1  UNL1        0.1360
      5 C         141.2449  141.7452  165.9964 C.ar    1  UNL1        0.0357
      6 C         140.9009  142.3597  164.6720 C.ar    1  UNL1        0.0007
      7 C         140.2889  140.7938  166.6527 C.3     1  UNL1        0.1580
      8 C         139.2388  139.8643  167.1852 C.3     1  UNL1        0.2351
      9 O         138.1115  139.8233  166.1964 O.2     1  UNL1       -0.4478
     10 C         138.4649  140.7273  165.0529 C.2     1  UNL1        0.2770
     11 N         137.6209  140.9862  163.8403 N.pl3   1  UNL1       -0.3133
     12 N         139.8106  141.3272  165.3348 N.2     1  UNL1       -0.2202
     13 C         140.6329  140.1793  167.9771 C.3     1  UNL1        0.1141
     14 C         140.8996  140.4447  167.7940 C.3     1  UNL1        0.1501
     15 O         140.6192  140.1657  167.9865 O.3     1  UNL1       -0.3532
     16 C         140.8996  140.4447  167.7940 C.3     1  UNL1        0.1501
     17 C         141.9329  140.5162  168.6452 C.3     1  UNL1        0.1395
     18 C         141.2552  139.5557  169.5769 C.3     1  UNL1        0.0404
     19 C         142.4194  139.6471  170.5182 C.3     1  UNL1        0.0072
     20 C         143.0972  140.6076  169.5865 C.3     1  UNL1        0.0404
     21 O         142.8890  141.4676  167.9888 O.3     1  UNL1       -0.4826
     22 H         136.7470  140.5428  163.7450 H       1  UNL1        0.1466
     23 H         137.9407  141.5994  163.1396 H       1  UNL1        0.1466
     24 C         142.1458  145.1634  156.3928 C.3     1  UNL1        0.0538
     25 C         141.8589  144.9803  157.8537 C.ar    1  UNL1        0.0785
     26 C         140.7316  145.6106  158.6165 C.ar    1  UNL1        0.0962
     27 N         140.8249  145.1547  160.0425 N.ar    1  UNL1       -0.2878
     28 C         139.9840  145.4522  161.2484 C.ar    1  UNL1        0.0815
     29 C         140.3279  144.8377  162.5728 C.ar    1  UNL1        0.0191
     30 C         141.5130  143.9257  162.6913 C.ar    1  UNL1        0.0045
     31 C         142.3539  143.6281  161.4853 C.ar    1  UNL1        0.0374
     32 C         142.0099  144.2427  160.1609 C.ar    1  UNL1        0.1474
     33 N         142.6489  144.1349  158.8082 N.ar    1  UNL1       -0.2307
@<TRIPOS>BOND
     1    24    25    1
     2    25    26   ar
     3    26    27   ar
     4    27    28   ar
     5    28    29   ar
     6    29    30   ar
     7    30     1    1
     8     1     2   ar
     9     2     3   ar
    10     3     4   ar
    11     4     5   ar
    12     5     6   ar
    13     5     7    1
    14     7     8    1
    15     8     9    1
    16     9    10    1
    17    10    11    1
    18    10    12    2
    19     7    13    1
    20    13    14    1
    21    14    15    1
    22    15    16    1
    23    13    17    1
    24    17    18    1
    25    18    19    1
    26    19    20    1
    27    17    21    1
    28    30    31   ar
    29    31    32   ar
    30    32    33   ar
    31    33    25   ar
    32    32    27   ar
    33     6     1   ar
    34    12     7    1
    35    16    13    1
    36    20    17    1
    37    21     4    1
    38    11    22    1
    39    11    23    1
@<TRIPOS>MOLECULE
*****
 33 39 0 0 0
SMALL
GASTEIGER

@<TRIPOS>ATOM
      1 C         141.2617  142.8909  163.8337 C.ar    1  UNL1        0.0001
      2 C         140.2731  143.6562  164.6627 C.ar    1  UNL1        0.0031
      3 C         140.0114  143.2499  166.0827 C.ar    1  UNL1        0.0366
      4 C         140.7381  142.0783  166.6737 C.ar    1  UNL1        0.1360
      5 C         141.7265  141.3130  165.8448 C.ar    1  UNL1        0.0357
      6 C         141.9884  141.7193  164.4247 C.ar    1  UNL1        0.0007
      7 C         142.4532  140.1415  166.4358 C.3     1  UNL1        0.1580
      8 C         143.2514  138.9546  166.8879 C.3     1  UNL1        0.2351
      9 O         144.1087  138.5083  165.7406 O.2     1  UNL1       -0.4478
     10 C         143.8403  139.4192  164.5796 C.2     1  UNL1        0.2770
     11 N         144.4822  139.3356  163.2265 N.pl3   1  UNL1       -0.3133
     12 N         142.8172  140.4286  165.0092 N.2     1  UNL1       -0.2202
     13 C         142.1915  139.7352  167.8558 C.3     1  UNL1        0.1141
     14 C         141.9887  140.0620  167.6909 C.3     1  UNL1        0.1501
     15 O         142.2018  139.7185  167.8642 O.3     1  UNL1       -0.3532
     16 C         141.9887  140.0620  167.6909 C.3     1  UNL1        0.1501
     17 C         141.2030  140.5005  168.6847 C.3     1  UNL1        0.1395
     18 C         141.7181  139.4224  169.5917 C.3     1  UNL1        0.0404
     19 C         140.8327  139.9258  170.6930 C.3     1  UNL1        0.0072
     20 C         140.3176  141.0039  169.7860 C.3     1  UNL1        0.0404
     21 O         140.4763  141.6720  168.0937 O.3     1  UNL1       -0.4826
     22 H         145.1465  138.6335  163.0394 H       1  UNL1        0.1466
     23 H         144.2391  139.9827  162.5255 H       1  UNL1        0.1466
     24 C         140.3914  146.2544  156.7944 C.3     1  UNL1        0.0538
     25 C         140.8008  145.5052  158.0277 C.ar    1  UNL1        0.0785
     26 C         142.0386  144.6724  158.1833 C.ar    1  UNL1        0.0962
     27 N         142.0470  144.1098  159.5737 N.ar    1  UNL1       -0.2878
     28 C         143.0179  143.2184  160.2900 C.ar    1  UNL1        0.0815
     29 C         142.7561  142.8121  161.7099 C.ar    1  UNL1        0.0191
     30 C         141.5234  143.2972  162.4138 C.ar    1  UNL1        0.0045
     31 C         140.5526  144.1886  161.6975 C.ar    1  UNL1        0.0374
     32 C         140.8144  144.5948  160.2775 C.ar    1  UNL1        0.1474
     33 N         140.0442  145.4573  159.3221 N.ar    1  UNL1       -0.2307
@<TRIPOS>BOND
     1    24    25    1
     2    25    26   ar
     3    26    27   ar
     4    27    28   ar
     5    28    29   ar
     6    29    30   ar
     7    30     1    1
     8     1     2   ar
     9     2     3   ar
    10     3     4   ar
    11     4     5   ar
    12     5     6   ar
    13     5     7    1
    14     7     8    1
    15     8     9    1
    16     9    10    1
    17    10    11    1
    18    10    12    2
    19     7    13    1
    20    13    14    1
    21    14    15    1
    22    15    16    1
    23    13    17    1
    24    17    18    1
    25    18    19    1
    26    19    20    1
    27    17    21    1
    28    30    31   ar
    29    31    32   ar
    30    32    33   ar
    31    33    25   ar
    32    32    27   ar
    33     6     1   ar
    34    12     7    1
    35    16    13    1
    36    20    17    1
    37    21     4    1
    38    11    22    1
    39    11    23    1
@<TRIPOS>MOLECULE
*****
 33 39 0 0 0
SMALL
GASTEIGER

@<TRIPOS>ATOM
      1 C         142.4035  142.2403  164.1324 C.ar    1  UNL1        0.0001
      2 C         143.4138  142.7760  165.1033 C.ar    1  UNL1        0.0031
      3 C         143.2490  142.5239  166.5727 C.ar    1  UNL1        0.0366
      4 C         142.0739  141.7361  167.0713 C.ar    1  UNL1        0.1360
      5 C         141.0637  141.2004  166.1006 C.ar    1  UNL1        0.0357
      6 C         141.2285  141.4525  164.6311 C.ar    1  UNL1        0.0007
      7 C         139.8887  140.4125  166.5992 C.3     1  UNL1        0.1580
      8 C         138.6691  139.6119  166.9479 C.3     1  UNL1        0.2351
      9 O         137.9473  139.2879  165.6734 O.2     1  UNL1       -0.4478
     10 C         138.7208  139.8883  164.5371 C.2     1  UNL1        0.2770
     11 N         138.3582  139.8078  163.0839 N.pl3   1  UNL1       -0.3133
     12 N         139.9207  140.5834  165.1092 N.2     1  UNL1       -0.2202
     13 C         139.7239  140.1604  168.0686 C.3     1  UNL1        0.1141
     14 C         140.0517  140.3802  167.9295 C.3     1  UNL1        0.1501
     15 O         139.7071  140.1492  168.0757 O.3     1  UNL1       -0.3532
     16 C         140.0517  140.3802  167.9295 C.3     1  UNL1        0.1501
     17 C         140.7341  140.6962  169.0394 C.3     1  UNL1        0.1395
     18 C         139.7255  139.9775  169.8858 C.3     1  UNL1        0.0404
     19 C         140.5010  140.3396  171.1176 C.3     1  UNL1        0.0072
     20 C         141.5097  141.0582  170.2712 C.3     1  UNL1        0.0404
     21 O         141.9091  141.4840  168.5407 O.3     1  UNL1       -0.4826
     22 H         137.5460  139.3263  162.8052 H       1  UNL1        0.1466
     23 H         138.9325  140.2365  162.4088 H       1  UNL1        0.1466
     24 C         141.9087  145.6678  157.0876 C.3     1  UNL1        0.0538
     25 C         142.1508  144.8093  158.2935 C.ar    1  UNL1        0.0785
     26 C         142.8991  143.5095  158.3145 C.ar    1  UNL1        0.0962
     27 N         142.8980  142.9966  159.7241 N.ar    1  UNL1       -0.2878
     28 C         143.4822  141.7616  160.3433 C.ar    1  UNL1        0.0815
     29 C         143.3174  141.5095  161.8127 C.ar    1  UNL1        0.0191
     30 C         142.5683  142.4924  162.6630 C.ar    1  UNL1        0.0045
     31 C         141.9841  143.7274  162.0437 C.ar    1  UNL1        0.0374
     32 C         142.1489  143.9795  160.5742 C.ar    1  UNL1        0.1474
     33 N         141.6872  145.0998  159.6902 N.ar    1  UNL1       -0.2307
@<TRIPOS>BOND
     1    24    25    1
     2    25    26   ar
     3    26    27   ar
     4    27    28   ar
     5    28    29   ar
     6    29    30   ar
     7    30     1    1
     8     1     2   ar
     9     2     3   ar
    10     3     4   ar
    11     4     5   ar
    12     5     6   ar
    13     5     7    1
    14     7     8    1
    15     8     9    1
    16     9    10    1
    17    10    11    1
    18    10    12    2
    19     7    13    1
    20    13    14    1
    21    14    15    1
    22    15    16    1
    23    13    17    1
    24    17    18    1
    25    18    19    1
    26    19    20    1
    27    17    21    1
    28    30    31   ar
    29    31    32   ar
    30    32    33   ar
    31    33    25   ar
    32    32    27   ar
    33     6     1   ar
    34    12     7    1
    35    16    13    1
    36    20    17    1
    37    21     4    1
    38    11    22    1
    39    11    23    1
@<TRIPOS>MOLECULE
*****
 33 39 0 0 0
SMALL
GASTEIGER

@<TRIPOS>ATOM
      1 C         139.7672  142.9971  162.6884 C.ar    1  UNL1        0.0001
      2 C         140.2458  144.1412  163.5322 C.ar    1  UNL1        0.0031
      3 C         140.4072  143.9649  165.0130 C.ar    1  UNL1        0.0366
      4 C         140.0899  142.6445  165.6501 C.ar    1  UNL1        0.1360
      5 C         139.6113  141.5004  164.8063 C.ar    1  UNL1        0.0357
      6 C         139.4500  141.6766  163.3254 C.ar    1  UNL1        0.0007
      7 C         139.2941  140.1800  165.4434 C.3     1  UNL1        0.1580
      8 C         138.9399  138.8084  165.9367 C.3     1  UNL1        0.2351
      9 O         138.5125  137.9872  164.7563 O.2     1  UNL1       -0.4478
     10 C         138.6026  138.8513  163.5336 C.2     1  UNL1        0.2770
     11 N         138.2683  138.4336  162.1323 N.pl3   1  UNL1       -0.3133
     12 N         139.0856  140.2065  163.9581 N.2     1  UNL1       -0.2202
     13 C         139.4554  140.0037  166.9242 C.3     1  UNL1        0.1141
     14 C         139.5439  140.3721  166.7465 C.3     1  UNL1        0.1501
     15 O         139.4509  139.9848  166.9333 O.3     1  UNL1       -0.3532
     16 C         139.5439  140.3721  166.7465 C.3     1  UNL1        0.1501
     17 C         139.9340  141.1478  167.7680 C.3     1  UNL1        0.1395
     18 C         139.7232  140.0170  168.7308 C.3     1  UNL1        0.0404
     19 C         140.1621  140.8985  169.8623 C.3     1  UNL1        0.0072
     20 C         140.3729  142.0292  168.8995 C.3     1  UNL1        0.0404
     21 O         140.2512  142.4682  167.1309 O.3     1  UNL1       -0.4826
     22 H         137.9573  137.5170  161.9528 H       1  UNL1        0.1466
     23 H         138.3599  139.0762  161.3920 H       1  UNL1        0.1466
     24 C         140.3854  145.9918  155.4585 C.3     1  UNL1        0.0538
     25 C         140.1091  145.2158  156.7120 C.ar    1  UNL1        0.0785
     26 C         139.2984  143.9576  156.8094 C.ar    1  UNL1        0.0962
     27 N         139.2832  143.5259  158.2458 N.ar    1  UNL1       -0.2878
     28 C         138.6433  142.3581  158.9363 C.ar    1  UNL1        0.0815
     29 C         138.8046  142.1818  160.4171 C.ar    1  UNL1        0.0191
     30 C         139.6059  143.1734  161.2076 C.ar    1  UNL1        0.0045
     31 C         140.2459  144.3412  160.5171 C.ar    1  UNL1        0.0374
     32 C         140.0845  144.5174  159.0363 C.ar    1  UNL1        0.1474
     33 N         140.5950  145.5619  158.0884 N.ar    1  UNL1       -0.2307
@<TRIPOS>BOND
     1    24    25    1
     2    25    26   ar
     3    26    27   ar
     4    27    28   ar
     5    28    29   ar
     6    29    30   ar
     7    30     1    1
     8     1     2   ar
     9     2     3   ar
    10     3     4   ar
    11     4     5   ar
    12     5     6   ar
    13     5     7    1
    14     7     8    1
    15     8     9    1
    16     9    10    1
    17    10    11    1
    18    10    12    2
    19     7    13    1
    20    13    14    1
    21    14    15    1
    22    15    16    1
    23    13    17    1
    24    17    18    1
    25    18    19    1
    26    19    20    1
    27    17    21    1
    28    30    31   ar
    29    31    32   ar
    30    32    33   ar
    31    33    25   ar
    32    32    27   ar
    33     6     1   ar
    34    12     7    1
    35    16    13    1
    36    20    17    1
    37    21     4    1
    38    11    22    1
    39    11    23    1
@<TRIPOS>MOLECULE
*****
 33 39 0 0 0
SMALL
GASTEIGER

@<TRIPOS>ATOM
      1 C         142.5309  143.6220  161.5538 C.ar    1  UNL1        0.0001
      2 C         143.9065  143.3769  162.0994 C.ar    1  UNL1        0.0031
      3 C         144.0901  143.0492  163.5516 C.ar    1  UNL1        0.0366
      4 C         142.8980  142.9667  164.4583 C.ar    1  UNL1        0.1360
      5 C         141.5224  143.2119  163.9128 C.ar    1  UNL1        0.0357
      6 C         141.3388  143.5395  162.4606 C.ar    1  UNL1        0.0007
      7 C         140.3303  143.1294  164.8196 C.3     1  UNL1        0.1580
      8 C         139.0507  143.0819  165.6008 C.3     1  UNL1        0.2351
      9 O         137.9222  143.3882  164.6611 O.2     1  UNL1       -0.4478
     10 C         138.5045  143.6250  163.2991 C.2     1  UNL1        0.2770
     11 N         137.7339  143.9625  162.0573 N.pl3   1  UNL1       -0.3133
     12 N         139.9928  143.4650  163.3970 N.2     1  UNL1       -0.2202
     13 C         140.5138  142.8017  166.2718 C.3     1  UNL1        0.1141
     14 C         140.8464  142.8248  166.0188 C.3     1  UNL1        0.1501
     15 O         140.4968  142.8006  166.2847 O.3     1  UNL1       -0.3532
     16 C         140.8464  142.8248  166.0188 C.3     1  UNL1        0.1501
     17 C         141.8894  142.5566  166.8172 C.3     1  UNL1        0.1395
     18 C         140.9710  142.3913  167.9917 C.3     1  UNL1        0.0404
     19 C         142.1490  142.0933  168.8711 C.3     1  UNL1        0.0072
     20 C         143.0675  142.2585  167.6967 C.3     1  UNL1        0.0404
     21 O         143.0815  142.6391  165.9105 O.3     1  UNL1       -0.4826
     22 H         136.7536  144.0462  162.0938 H       1  UNL1        0.1466
     23 H         138.2083  144.1002  161.2058 H       1  UNL1        0.1466
     24 C         139.8466  146.9720  154.9817 C.3     1  UNL1        0.0538
     25 C         140.5271  146.1806  156.0589 C.ar    1  UNL1        0.0785
     26 C         141.5839  145.1365  155.8517 C.ar    1  UNL1        0.0962
     27 N         141.9803  144.6049  157.1972 N.ar    1  UNL1       -0.2878
     28 C         142.9756  143.5616  157.6107 C.ar    1  UNL1        0.0815
     29 C         143.1592  143.2340  159.0629 C.ar    1  UNL1        0.0191
     30 C         142.3474  143.9496  160.1016 C.ar    1  UNL1        0.0045
     31 C         141.3521  144.9929  159.6881 C.ar    1  UNL1        0.0374
     32 C         141.1686  145.3205  158.2358 C.ar    1  UNL1        0.1474
     33 N         140.2704  146.2943  157.5324 N.ar    1  UNL1       -0.2307
@<TRIPOS>BOND
     1    24    25    1
     2    25    26   ar
     3    26    27   ar
     4    27    28   ar
     5    28    29   ar
     6    29    30   ar
     7    30     1    1
     8     1     2   ar
     9     2     3   ar
    10     3     4   ar
    11     4     5   ar
    12     5     6   ar
    13     5     7    1
    14     7     8    1
    15     8     9    1
    16     9    10    1
    17    10    11    1
    18    10    12    2
    19     7    13    1
    20    13    14    1
    21    14    15    1
    22    15    16    1
    23    13    17    1
    24    17    18    1
    25    18    19    1
    26    19    20    1
    27    17    21    1
    28    30    31   ar
    29    31    32   ar
    30    32    33   ar
    31    33    25   ar
    32    32    27   ar
    33     6     1   ar
    34    12     7    1
    35    16    13    1
    36    20    17    1
    37    21     4    1
    38    11    22    1
    39    11    23    1
@<TRIPOS>MOLECULE
*****
 33 39 0 0 0
SMALL
GASTEIGER

@<TRIPOS>ATOM
      1 C         139.4482  139.7637  162.5365 C.ar    1  UNL1        0.0001
      2 C         138.1631  140.0952  163.2357 C.ar    1  UNL1        0.0031
      3 C         138.1334  140.2225  164.7299 C.ar    1  UNL1        0.0366
      4 C         139.3888  140.0185  165.5251 C.ar    1  UNL1        0.1360
      5 C         140.6738  139.6870  164.8261 C.ar    1  UNL1        0.0357
      6 C         140.7036  139.5596  163.3318 C.ar    1  UNL1        0.0007
      7 C         141.9292  139.4830  165.6213 C.3     1  UNL1        0.1580
      8 C         143.2571  139.2523  166.2798 C.3     1  UNL1        0.2351
      9 O         144.2607  138.9507  165.2065 O.2     1  UNL1       -0.4478
     10 C         143.5531  138.9950  163.8846 C.2     1  UNL1        0.2770
     11 N         144.1767  138.7529  162.5422 N.pl3   1  UNL1       -0.3133
     12 N         142.1121  139.3239  164.1410 N.2     1  UNL1       -0.2202
     13 C         141.8995  139.6103  167.1156 C.3     1  UNL1        0.1141
     14 C         141.5493  139.6673  166.8937 C.3     1  UNL1        0.1501
     15 O         141.9174  139.6074  167.1269 O.3     1  UNL1       -0.3532
     16 C         141.5493  139.6673  166.8937 C.3     1  UNL1        0.1501
     17 C         140.6145  139.9418  167.8146 C.3     1  UNL1        0.1395
     18 C         141.6306  139.8132  168.9106 C.3     1  UNL1        0.0404
     19 C         140.5724  140.1220  169.9279 C.3     1  UNL1        0.0072
     20 C         139.5563  140.2505  168.8320 C.3     1  UNL1        0.0404
     21 O         139.3591  140.1459  167.0194 O.3     1  UNL1       -0.4826
     22 H         145.1362  138.5423  162.4759 H       1  UNL1        0.1466
     23 H         143.6267  138.8045  161.7273 H       1  UNL1        0.1466
     24 C         137.4303  140.4784  154.9841 C.3     1  UNL1        0.0538
     25 C         138.0404  140.1937  156.3245 C.ar    1  UNL1        0.0785
     26 C         139.3020  139.4212  156.5728 C.ar    1  UNL1        0.0962
     27 N         139.5373  139.3815  158.0537 N.ar    1  UNL1       -0.2878
     28 C         140.6238  138.7609  158.8811 C.ar    1  UNL1        0.0815
     29 C         140.5941  138.8883  160.3753 C.ar    1  UNL1        0.0191
     30 C         139.4779  139.6363  161.0423 C.ar    1  UNL1        0.0045
     31 C         138.3915  140.2569  160.2149 C.ar    1  UNL1        0.0374
     32 C         138.4212  140.1295  158.7206 C.ar    1  UNL1        0.1474
     33 N         137.4960  140.6314  157.6519 N.ar    1  UNL1       -0.2307
@<TRIPOS>BOND
     1    24    25    1
     2    25    26   ar
     3    26    27   ar
     4    27    28   ar
     5    28    29   ar
     6    29    30   ar
     7    30     1    1
     8     1     2   ar
     9     2     3   ar
    10     3     4   ar
    11     4     5   ar
    12     5     6   ar
    13     5     7    1
    14     7     8    1
    15     8     9    1
    16     9    10    1
    17    10    11    1
    18    10    12    2
    19     7    13    1
    20    13    14    1
    21    14    15    1
    22    15    16    1
    23    13    17    1
    24    17    18    1
    25    18    19    1
    26    19    20    1
    27    17    21    1
    28    30    31   ar
    29    31    32   ar
    30    32    33   ar
    31    33    25   ar
    32    32    27   ar
    33     6     1   ar
    34    12     7    1
    35    16    13    1
    36    20    17    1
    37    21     4    1
    38    11    22    1
    39    11    23    1
@<TRIPOS>MOLECULE
*****
 33 39 0 0 0
SMALL
GASTEIGER

@<TRIPOS>ATOM
      1 C         142.5819  141.0334  163.7335 C.ar    1  UNL1        0.0001
      2 C         143.4046  141.9751  164.5621 C.ar    1  UNL1        0.0031
      3 C         143.0527  142.2113  166.0009 C.ar    1  UNL1        0.0366
      4 C         141.8781  141.5057  166.6113 C.ar    1  UNL1        0.1360
      5 C         141.0555  140.5640  165.7829 C.ar    1  UNL1        0.0357
      6 C         141.4074  140.3278  164.3440 C.ar    1  UNL1        0.0007
      7 C         139.8809  139.8584  166.3933 C.3     1  UNL1        0.1580
      8 C         138.6844  139.0856  166.8635 C.3     1  UNL1        0.2351
      9 O         138.1743  138.2737  165.7099 O.2     1  UNL1       -0.4478
     10 C         139.0556  138.5446  164.5268 C.2     1  UNL1        0.2770
     11 N         138.9081  137.9421  163.1612 N.pl3   1  UNL1       -0.3133
     12 N         140.1104  139.5241  164.9491 N.2     1  UNL1       -0.2202
     13 C         139.5290  140.0946  167.8322 C.3     1  UNL1        0.1141
     14 C         139.8567  140.2914  167.6619 C.3     1  UNL1        0.1501
     15 O         139.5123  140.0845  167.8409 O.3     1  UNL1       -0.3532
     16 C         139.8567  140.2914  167.6619 C.3     1  UNL1        0.1501
     17 C         140.3517  141.0363  168.6606 C.3     1  UNL1        0.1395
     18 C         139.2875  140.5308  169.5891 C.3     1  UNL1        0.0404
     19 C         139.8540  141.3703  170.6956 C.3     1  UNL1        0.0072
     20 C         140.9182  141.8758  169.7671 C.3     1  UNL1        0.0404
     21 O         141.5262  141.7419  168.0502 O.3     1  UNL1       -0.4826
     22 H         138.1796  137.3051  162.9803 H       1  UNL1        0.1466
     23 H         139.5398  138.1836  162.4457 H       1  UNL1        0.1466
     24 C         145.3542  142.1973  156.4822 C.3     1  UNL1        0.0538
     25 C         144.7467  141.7167  157.7667 C.ar    1  UNL1        0.0785
     26 C         144.1077  140.3787  157.9935 C.ar    1  UNL1        0.0962
     27 N         143.6376  140.3248  159.4169 N.ar    1  UNL1       -0.2878
     28 C         142.9373  139.2563  160.2029 C.ar    1  UNL1        0.0815
     29 C         142.5854  139.4925  161.6417 C.ar    1  UNL1        0.0191
     30 C         142.9338  140.7972  162.2947 C.ar    1  UNL1        0.0045
     31 C         143.6341  141.8658  161.5087 C.ar    1  UNL1        0.0374
     32 C         143.9860  141.6295  160.0698 C.ar    1  UNL1        0.1474
     33 N         144.6715  142.4898  159.0500 N.ar    1  UNL1       -0.2307
@<TRIPOS>BOND
     1    24    25    1
     2    25    26   ar
     3    26    27   ar
     4    27    28   ar
     5    28    29   ar
     6    29    30   ar
     7    30     1    1
     8     1     2   ar
     9     2     3   ar
    10     3     4   ar
    11     4     5   ar
    12     5     6   ar
    13     5     7    1
    14     7     8    1
    15     8     9    1
    16     9    10    1
    17    10    11    1
    18    10    12    2
    19     7    13    1
    20    13    14    1
    21    14    15    1
    22    15    16    1
    23    13    17    1
    24    17    18    1
    25    18    19    1
    26    19    20    1
    27    17    21    1
    28    30    31   ar
    29    31    32   ar
    30    32    33   ar
    31    33    25   ar
    32    32    27   ar
    33     6     1   ar
    34    12     7    1
    35    16    13    1
    36    20    17    1
    37    21     4    1
    38    11    22    1
    39    11    23    1
@<TRIPOS>MOLECULE
*****
 33 39 0 0 0
SMALL
GASTEIGER

@<TRIPOS>ATOM
      1 C         139.1800  140.2557  164.3698 C.ar    1  UNL1        0.0001
      2 C         138.3160  139.5097  165.3430 C.ar    1  UNL1        0.0031
      3 C         138.6891  139.4640  166.7951 C.ar    1  UNL1        0.0366
      4 C         139.9260  140.1643  167.2741 C.ar    1  UNL1        0.1360
      5 C         140.7900  140.9103  166.3010 C.ar    1  UNL1        0.0357
      6 C         140.4169  140.9561  164.8488 C.ar    1  UNL1        0.0007
      7 C         142.0269  141.6107  166.7800 C.3     1  UNL1        0.1580
      8 C         143.2867  142.3550  167.1100 C.3     1  UNL1        0.2351
      9 O         143.8212  142.9477  165.8399 O.2     1  UNL1       -0.4478
     10 C         142.8917  142.5698  164.7249 C.2     1  UNL1        0.2770
     11 N         143.0443  142.9512  163.2824 N.pl3   1  UNL1       -0.3133
     12 N         141.7827  141.7434  165.3059 N.2     1  UNL1       -0.2202
     13 C         142.3999  141.5650  168.2321 C.3     1  UNL1        0.1141
     14 C         142.0548  141.3696  168.0985 C.3     1  UNL1        0.1501
     15 O         142.4176  141.5750  168.2390 O.3     1  UNL1       -0.3532
     16 C         142.0548  141.3696  168.0985 C.3     1  UNL1        0.1501
     17 C         141.5360  140.8189  169.2052 C.3     1  UNL1        0.1395
     18 C         142.6575  141.3771  170.0304 C.3     1  UNL1        0.0404
     19 C         142.0636  140.7543  171.2590 C.3     1  UNL1        0.0072
     20 C         140.9421  140.1961  170.4338 C.3     1  UNL1        0.0404
     21 O         140.2990  140.1186  168.7262 O.3     1  UNL1       -0.4826
     22 H         143.8104  143.4994  162.9965 H       1  UNL1        0.1466
     23 H         142.3783  142.6533  162.6214 H       1  UNL1        0.1466
     24 C         137.9967  142.9461  157.0908 C.3     1  UNL1        0.0538
     25 C         138.1251  142.1828  158.3756 C.ar    1  UNL1        0.0785
     26 C         137.7769  140.7384  158.5816 C.ar    1  UNL1        0.0962
     27 N         138.0608  140.3928  160.0133 N.ar    1  UNL1       -0.2878
     28 C         137.9102  139.1163  160.7866 C.ar    1  UNL1        0.0815
     29 C         138.2832  139.0706  162.2387 C.ar    1  UNL1        0.0191
     30 C         138.8069  140.3014  162.9177 C.ar    1  UNL1        0.0045
     31 C         138.9576  141.5779  162.1444 C.ar    1  UNL1        0.0374
     32 C         138.5845  141.6235  160.6922 C.ar    1  UNL1        0.1474
     33 N         138.6243  142.7299  159.6801 N.ar    1  UNL1       -0.2307
@<TRIPOS>BOND
     1    24    25    1
     2    25    26   ar
     3    26    27   ar
     4    27    28   ar
     5    28    29   ar
     6    29    30   ar
     7    30     1    1
     8     1     2   ar
     9     2     3   ar
    10     3     4   ar
    11     4     5   ar
    12     5     6   ar
    13     5     7    1
    14     7     8    1
    15     8     9    1
    16     9    10    1
    17    10    11    1
    18    10    12    2
    19     7    13    1
    20    13    14    1
    21    14    15    1
    22    15    16    1
    23    13    17    1
    24    17    18    1
    25    18    19    1
    26    19    20    1
    27    17    21    1
    28    30    31   ar
    29    31    32   ar
    30    32    33   ar
    31    33    25   ar
    32    32    27   ar
    33     6     1   ar
    34    12     7    1
    35    16    13    1
    36    20    17    1
    37    21     4    1
    38    11    22    1
    39    11    23    1
@<TRIPOS>MOLECULE
*****
 33 39 0 0 0
SMALL
GASTEIGER

@<TRIPOS>ATOM
      1 C         139.1929  142.6447  162.1008 C.ar    1  UNL1        0.0001
      2 C         138.3720  143.2055  163.2240 C.ar    1  UNL1        0.0031
      3 C         137.9428  142.3183  164.3548 C.ar    1  UNL1        0.0366
      4 C         138.3345  140.8704  164.3624 C.ar    1  UNL1        0.1360
      5 C         139.1554  140.3096  163.2392 C.ar    1  UNL1        0.0357
      6 C         139.5846  141.1968  162.1083 C.ar    1  UNL1        0.0007
      7 C         139.5471  138.8617  163.2468 C.3     1  UNL1        0.1580
      8 C         140.0122  137.4414  163.1183 C.3     1  UNL1        0.2351
      9 O         140.7996  137.3247  161.8469 O.2     1  UNL1       -0.4478
     10 C         140.8213  138.6728  161.1896 C.2     1  UNL1        0.2770
     11 N         141.4981  139.0115  159.8947 N.pl3   1  UNL1       -0.3133
     12 N         140.0472  139.6228  162.0548 N.2     1  UNL1       -0.2202
     13 C         139.1180  137.9746  164.3776 C.3     1  UNL1        0.1141
     14 C         139.0087  138.3785  164.3755 C.3     1  UNL1        0.1501
     15 O         139.1236  137.9539  164.3777 O.3     1  UNL1       -0.3532
     16 C         139.0087  138.3785  164.3755 C.3     1  UNL1        0.1501
     17 C         138.2971  138.5353  165.5008 C.3     1  UNL1        0.1395
     18 C         138.4886  137.0880  165.8450 C.3     1  UNL1        0.0404
     19 C         137.6901  137.2807  167.1001 C.3     1  UNL1        0.0072
     20 C         137.4985  138.7280  166.7559 C.3     1  UNL1        0.0404
     21 O         137.9054  139.9833  165.4932 O.3     1  UNL1       -0.4826
     22 H         141.9845  138.3154  159.3966 H       1  UNL1        0.1466
     23 H         141.4559  139.9300  159.5427 H       1  UNL1        0.1466
     24 C         140.4708  145.3059  154.8270 C.3     1  UNL1        0.0538
     25 C         140.3476  145.0454  156.2991 C.ar    1  UNL1        0.0785
     26 C         140.7970  145.9629  157.3974 C.ar    1  UNL1        0.0962
     27 N         140.4805  145.3063  158.7084 N.ar    1  UNL1       -0.2878
     28 C         140.6962  145.7424  160.1273 C.ar    1  UNL1        0.0815
     29 C         140.2671  144.8552  161.2581 C.ar    1  UNL1        0.0191
     30 C         139.6221  143.5319  160.9700 C.ar    1  UNL1        0.0045
     31 C         139.4063  143.0958  159.5511 C.ar    1  UNL1        0.0374
     32 C         139.8355  143.9830  158.4203 C.ar    1  UNL1        0.1474
     33 N         139.7534  143.8218  156.9312 N.ar    1  UNL1       -0.2307
@<TRIPOS>BOND
     1    24    25    1
     2    25    26   ar
     3    26    27   ar
     4    27    28   ar
     5    28    29   ar
     6    29    30   ar
     7    30     1    1
     8     1     2   ar
     9     2     3   ar
    10     3     4   ar
    11     4     5   ar
    12     5     6   ar
    13     5     7    1
    14     7     8    1
    15     8     9    1
    16     9    10    1
    17    10    11    1
    18    10    12    2
    19     7    13    1
    20    13    14    1
    21    14    15    1
    22    15    16    1
    23    13    17    1
    24    17    18    1
    25    18    19    1
    26    19    20    1
    27    17    21    1
    28    30    31   ar
    29    31    32   ar
    30    32    33   ar
    31    33    25   ar
    32    32    27   ar
    33     6     1   ar
    34    12     7    1
    35    16    13    1
    36    20    17    1
    37    21     4    1
    38    11    22    1
    39    11    23    1
