@<TRIPOS>MOLECULE
*****
 32 35 0 0 0
SMALL
GASTEIGER

@<TRIPOS>ATOM
      1 N         142.1971  139.0996  158.2566 N.pl3   1  UNL1       -0.2091
      2 H         141.4955  139.7116  157.9365 H       1  UNL1        0.1739
      3 C         143.8212  138.7824  156.2537 C.ar    1  UNL1        0.2400
      4 N         144.5296  137.8818  155.2858 N.ar    1  UNL1       -0.2091
      5 C         144.3225  136.3976  155.3529 C.ar    1  UNL1        0.1018
      6 C         143.4069  135.8142  156.3879 C.ar    1  UNL1        0.0165
      7 C         142.6985  136.7148  157.3558 C.ar    1  UNL1        0.0218
      8 C         142.9056  138.1990  157.2887 C.ar    1  UNL1        0.1179
      9 C         143.1998  134.3301  156.4549 C.2     1  UNL1       -0.0200
     10 C         144.1009  133.4847  157.3054 C.2     1  UNL1        0.0015
     11 C         143.8937  132.0006  157.3725 C.3     1  UNL1        0.1680
     12 O         142.7855  131.3618  156.5891 O.3     1  UNL1       -0.3487
     13 C         141.8845  132.2072  155.7386 C.3     1  UNL1        0.1473
     14 C         142.0916  133.6913  155.6715 C.3     1  UNL1        0.0582
     15 C         145.4010  140.8415  156.3744 C.3     1  UNL1        0.2543
     16 O         144.0283  140.2665  156.1866 O.3     1  UNL1       -0.4553
     17 S         142.5576  139.0678  159.7123 S.O2    1  UNL1        0.0919
     18 O         143.9609  139.4755  159.3737 O.2     1  UNL1       -0.1484
     19 O         141.1544  138.6601  160.0509 O.2     1  UNL1       -0.1484
     20 C         142.9181  139.0360  161.1680 C.ar    1  UNL1        0.2244
     21 C         142.1109  138.4033  162.2626 C.ar    1  UNL1        0.1173
     22 N         142.8430  138.6075  163.5558 N.ar    1  UNL1       -0.3083
     23 C         144.1027  139.3664  163.2605 C.ar    1  UNL1        0.1226
     24 C         145.1348  139.7867  164.2645 C.3     1  UNL1        0.0719
     25 N         144.1491  139.6312  161.7847 N.ar    1  UNL1       -0.2113
     26 C         142.3942  138.1357  164.9071 C.3     1  UNL1        0.1340
     27 C         141.0064  138.4434  165.3860 C.ar    1  UNL1        0.0004
     28 C         140.7669  139.6190  166.2862 C.ar    1  UNL1       -0.0024
     29 C         139.3791  139.9266  166.7650 C.ar    1  UNL1       -0.0003
     30 C         138.2307  139.0586  166.3437 C.ar    1  UNL1       -0.0000
     31 C         138.4701  137.8829  165.4435 C.ar    1  UNL1       -0.0003
     32 C         139.8580  137.5753  164.9646 C.ar    1  UNL1       -0.0024
@<TRIPOS>BOND
     1    15    16    1
     2    16     3    1
     3     3     4   ar
     4     4     5   ar
     5     5     6   ar
     6     6     9    1
     7     9    10    2
     8    10    11    1
     9    11    12    1
    10    12    13    1
    11    13    14    1
    12     6     7   ar
    13     7     8   ar
    14     8     1    1
    15     1    17    1
    16    17    18    2
    17    17    19    2
    18    17    20    1
    19    20    21   ar
    20    21    22   ar
    21    22    26    1
    22    26    27    1
    23    27    28   ar
    24    28    29   ar
    25    29    30   ar
    26    30    31   ar
    27    31    32   ar
    28    22    23   ar
    29    23    24    1
    30    23    25   ar
    31     8     3   ar
    32    25    20   ar
    33    14     9    1
    34    32    27   ar
    35     1     2    1
@<TRIPOS>MOLECULE
*****
 32 35 0 0 0
SMALL
GASTEIGER

@<TRIPOS>ATOM
      1 N         142.1436  138.4994  157.7898 N.pl3   1  UNL1       -0.2091
      2 H         142.2469  139.3742  157.3500 H       1  UNL1        0.1739
      3 C         140.7898  137.2382  155.9659 C.ar    1  UNL1        0.2400
      4 N         140.5542  136.0074  155.1415 N.ar    1  UNL1       -0.2091
      5 C         141.4365  134.8071  155.3167 C.ar    1  UNL1        0.1018
      6 C         142.5545  134.8375  156.3162 C.ar    1  UNL1        0.0165
      7 C         142.7902  136.0683  157.1405 C.ar    1  UNL1        0.0218
      8 C         141.9079  137.2686  156.9654 C.ar    1  UNL1        0.1179
      9 C         143.4369  133.6372  156.4913 C.2     1  UNL1       -0.0200
     10 C         144.2600  133.4867  157.7362 C.2     1  UNL1        0.0015
     11 C         145.1424  132.2864  157.9113 C.3     1  UNL1        0.1680
     12 O         145.2016  131.2366  156.8416 O.3     1  UNL1       -0.3487
     13 C         144.3785  131.3871  155.5967 C.3     1  UNL1        0.1473
     14 C         143.4961  132.5874  155.4216 C.3     1  UNL1        0.0582
     15 C         139.0154  138.5447  154.5896 C.3     1  UNL1        0.2543
     16 O         139.9075  138.4385  155.7908 O.3     1  UNL1       -0.4553
     17 S         142.2218  138.3975  159.2843 S.O2    1  UNL1        0.0919
     18 O         140.7457  138.1376  159.3438 O.2     1  UNL1       -0.1484
     19 O         143.6980  138.6573  159.2247 O.2     1  UNL1       -0.1484
     20 C         142.3001  138.2955  160.7788 C.ar    1  UNL1        0.2244
     21 C         143.3757  138.8777  161.6471 C.ar    1  UNL1        0.1173
     22 N         143.0569  138.5354  163.0723 N.ar    1  UNL1       -0.3083
     23 C         141.7842  137.7416  163.0848 C.ar    1  UNL1        0.1226
     24 C         141.0994  137.1925  164.3012 C.3     1  UNL1        0.0719
     25 N         141.3165  137.5933  161.6673 N.ar    1  UNL1       -0.2113
     26 C         143.8682  138.9195  164.2740 C.3     1  UNL1        0.1340
     27 C         143.9962  140.3627  164.6624 C.ar    1  UNL1        0.0004
     28 C         143.1017  140.9369  165.7207 C.ar    1  UNL1       -0.0024
     29 C         143.2298  142.3801  166.1089 C.ar    1  UNL1       -0.0003
     30 C         144.2523  143.2491  165.4389 C.ar    1  UNL1       -0.0000
     31 C         145.1470  142.6750  164.3805 C.ar    1  UNL1       -0.0003
     32 C         145.0189  141.2318  163.9923 C.ar    1  UNL1       -0.0024
@<TRIPOS>BOND
     1    15    16    1
     2    16     3    1
     3     3     4   ar
     4     4     5   ar
     5     5     6   ar
     6     6     9    1
     7     9    10    2
     8    10    11    1
     9    11    12    1
    10    12    13    1
    11    13    14    1
    12     6     7   ar
    13     7     8   ar
    14     8     1    1
    15     1    17    1
    16    17    18    2
    17    17    19    2
    18    17    20    1
    19    20    21   ar
    20    21    22   ar
    21    22    26    1
    22    26    27    1
    23    27    28   ar
    24    28    29   ar
    25    29    30   ar
    26    30    31   ar
    27    31    32   ar
    28    22    23   ar
    29    23    24    1
    30    23    25   ar
    31     8     3   ar
    32    25    20   ar
    33    14     9    1
    34    32    27   ar
    35     1     2    1
@<TRIPOS>MOLECULE
*****
 32 35 0 0 0
SMALL
GASTEIGER

@<TRIPOS>ATOM
      1 N         142.0924  138.9804  158.2082 N.pl3   1  UNL1       -0.2091
      2 H         141.5492  139.7243  157.8607 H       1  UNL1        0.1739
      3 C         143.7761  138.6944  156.2503 C.ar    1  UNL1        0.2400
      4 N         144.5274  137.8076  155.3021 N.ar    1  UNL1       -0.2091
      5 C         144.3464  136.3198  155.3638 C.ar    1  UNL1        0.1018
      6 C         143.4141  135.7189  156.3735 C.ar    1  UNL1        0.0165
      7 C         142.6628  136.6058  157.3217 C.ar    1  UNL1        0.0218
      8 C         142.8438  138.0935  157.2600 C.ar    1  UNL1        0.1179
      9 C         143.2331  134.2311  156.4352 C.2     1  UNL1       -0.0200
     10 C         142.1237  133.5780  155.6653 C.2     1  UNL1        0.0015
     11 C         141.9427  132.0903  155.7269 C.3     1  UNL1        0.1680
     12 O         142.8711  131.2556  156.5585 O.3     1  UNL1       -0.3487
     13 C         143.9804  131.9087  157.3283 C.3     1  UNL1        0.1473
     14 C         144.1614  133.3965  157.2667 C.3     1  UNL1        0.0582
     15 C         145.0612  140.8362  156.9652 C.3     1  UNL1        0.2543
     16 O         143.9571  140.1822  156.1886 O.3     1  UNL1       -0.4553
     17 S         142.1688  138.7338  159.6858 S.O2    1  UNL1        0.0919
     18 O         143.6495  138.9709  159.6489 O.2     1  UNL1       -0.1484
     19 O         140.6881  138.4967  159.7228 O.2     1  UNL1       -0.1484
     20 C         142.2451  138.4872  161.1634 C.ar    1  UNL1        0.2244
     21 C         143.3171  138.9862  162.0864 C.ar    1  UNL1        0.1173
     22 N         142.9974  138.5057  163.4709 N.ar    1  UNL1       -0.3083
     23 C         141.7278  137.7096  163.4037 C.ar    1  UNL1        0.1226
     24 C         141.0434  137.0422  164.5595 C.3     1  UNL1        0.0719
     25 N         141.2629  137.6982  161.9776 N.ar    1  UNL1       -0.2113
     26 C         143.8054  138.7741  164.7059 C.3     1  UNL1        0.1340
     27 C         143.3068  139.7491  165.7310 C.ar    1  UNL1        0.0004
     28 C         143.2864  141.2168  165.4227 C.ar    1  UNL1       -0.0024
     29 C         142.7878  142.1917  166.4479 C.ar    1  UNL1       -0.0003
     30 C         142.3096  141.6988  167.7814 C.ar    1  UNL1       -0.0000
     31 C         142.3300  140.2309  168.0899 C.ar    1  UNL1       -0.0003
     32 C         142.8287  139.2561  167.0646 C.ar    1  UNL1       -0.0024
@<TRIPOS>BOND
     1    15    16    1
     2    16     3    1
     3     3     4   ar
     4     4     5   ar
     5     5     6   ar
     6     6     9    1
     7     9    10    2
     8    10    11    1
     9    11    12    1
    10    12    13    1
    11    13    14    1
    12     6     7   ar
    13     7     8   ar
    14     8     1    1
    15     1    17    1
    16    17    18    2
    17    17    19    2
    18    17    20    1
    19    20    21   ar
    20    21    22   ar
    21    22    26    1
    22    26    27    1
    23    27    28   ar
    24    28    29   ar
    25    29    30   ar
    26    30    31   ar
    27    31    32   ar
    28    22    23   ar
    29    23    24    1
    30    23    25   ar
    31     8     3   ar
    32    25    20   ar
    33    14     9    1
    34    32    27   ar
    35     1     2    1
@<TRIPOS>MOLECULE
*****
 32 35 0 0 0
SMALL
GASTEIGER

@<TRIPOS>ATOM
      1 N         141.5481  145.4950  159.7583 N.pl3   1  UNL1       -0.2091
      2 H         141.9917  146.3602  159.6035 H       1  UNL1        0.1739
      3 C         140.5614  145.0136  157.4036 C.ar    1  UNL1        0.2400
      4 N         140.3334  144.0722  156.2583 N.ar    1  UNL1       -0.2091
      5 C         140.8641  142.6707  156.3224 C.ar    1  UNL1        0.1018
      6 C         141.6228  142.2106  157.5318 C.ar    1  UNL1        0.0165
      7 C         141.8508  143.1520  158.6771 C.ar    1  UNL1        0.0218
      8 C         141.3201  144.5535  158.6129 C.ar    1  UNL1        0.1179
      9 C         142.1535  140.8091  157.5959 C.2     1  UNL1       -0.0200
     10 C         142.3915  140.0386  156.3311 C.2     1  UNL1        0.0015
     11 C         142.9222  138.6371  156.3953 C.3     1  UNL1        0.1680
     12 O         143.2150  138.0061  157.7242 O.3     1  UNL1       -0.3487
     13 C         142.9770  138.7765  158.9889 C.3     1  UNL1        0.1473
     14 C         142.4463  140.1780  158.9248 C.3     1  UNL1        0.0582
     15 C         139.3199  146.8923  156.1078 C.3     1  UNL1        0.2543
     16 O         140.0306  146.4151  157.3394 O.3     1  UNL1       -0.4553
     17 S         141.1002  145.1182  161.1394 S.O2    1  UNL1        0.0919
     18 O         139.6981  145.5260  160.7959 O.2     1  UNL1       -0.1484
     19 O         142.5023  144.7105  161.4829 O.2     1  UNL1       -0.1484
     20 C         140.6523  144.7415  162.5205 C.ar    1  UNL1        0.2244
     21 C         141.3090  143.7331  163.4160 C.ar    1  UNL1        0.1173
     22 N         140.5316  143.6753  164.6975 N.ar    1  UNL1       -0.3083
     23 C         139.3945  144.6480  164.5941 C.ar    1  UNL1        0.1226
     24 C         138.3637  144.9150  165.6506 C.3     1  UNL1        0.0719
     25 N         139.4691  145.3069  163.2486 N.ar    1  UNL1       -0.2113
     26 C         140.8377  142.7988  165.8757 C.3     1  UNL1        0.1340
     27 C         139.9898  141.5930  166.1536 C.ar    1  UNL1        0.0004
     28 C         139.0991  141.0392  165.0814 C.ar    1  UNL1       -0.0024
     29 C         138.2513  139.8334  165.3594 C.ar    1  UNL1       -0.0003
     30 C         138.2942  139.1814  166.7095 C.ar    1  UNL1       -0.0000
     31 C         139.1850  139.7352  167.7818 C.ar    1  UNL1       -0.0003
     32 C         140.0328  140.9411  167.5038 C.ar    1  UNL1       -0.0024
@<TRIPOS>BOND
     1    15    16    1
     2    16     3    1
     3     3     4   ar
     4     4     5   ar
     5     5     6   ar
     6     6     9    1
     7     9    10    2
     8    10    11    1
     9    11    12    1
    10    12    13    1
    11    13    14    1
    12     6     7   ar
    13     7     8   ar
    14     8     1    1
    15     1    17    1
    16    17    18    2
    17    17    19    2
    18    17    20    1
    19    20    21   ar
    20    21    22   ar
    21    22    26    1
    22    26    27    1
    23    27    28   ar
    24    28    29   ar
    25    29    30   ar
    26    30    31   ar
    27    31    32   ar
    28    22    23   ar
    29    23    24    1
    30    23    25   ar
    31     8     3   ar
    32    25    20   ar
    33    14     9    1
    34    32    27   ar
    35     1     2    1
@<TRIPOS>MOLECULE
*****
 32 35 0 0 0
SMALL
GASTEIGER

@<TRIPOS>ATOM
      1 N         141.1777  139.0585  157.8284 N.pl3   1  UNL1       -0.2091
      2 H         140.7448  139.8089  157.3607 H       1  UNL1        0.1739
      3 C         143.3593  138.7667  156.4479 C.ar    1  UNL1        0.2400
      4 N         144.3243  137.8827  155.7150 N.ar    1  UNL1       -0.2091
      5 C         144.0728  136.4064  155.6296 C.ar    1  UNL1        0.1018
      6 C         142.8563  135.8142  156.2770 C.ar    1  UNL1        0.0165
      7 C         141.8913  136.6982  157.0100 C.ar    1  UNL1        0.0218
      8 C         142.1428  138.1745  157.0954 C.ar    1  UNL1        0.1179
      9 C         142.6048  134.3379  156.1916 C.2     1  UNL1       -0.0200
     10 C         143.3536  133.3964  157.0876 C.2     1  UNL1        0.0015
     11 C         143.1021  131.9201  157.0021 C.3     1  UNL1        0.1680
     12 O         142.1018  131.3853  156.0207 O.3     1  UNL1       -0.3487
     13 C         141.3529  132.3267  155.1248 C.3     1  UNL1        0.1473
     14 C         141.6044  133.8030  155.2102 C.3     1  UNL1        0.0582
     15 C         144.8189  140.7573  157.2587 C.3     1  UNL1        0.2543
     16 O         143.6108  140.2430  156.5334 O.3     1  UNL1       -0.4553
     17 S         140.8723  138.7992  159.2738 S.O2    1  UNL1        0.0919
     18 O         139.4761  138.3924  158.9058 O.2     1  UNL1       -0.1484
     19 O         142.2684  139.2059  159.6418 O.2     1  UNL1       -0.1484
     20 C         140.5668  138.5398  160.7193 C.ar    1  UNL1        0.2244
     21 C         139.4375  139.1399  161.5033 C.ar    1  UNL1        0.1173
     22 N         139.5098  138.6058  162.9031 N.ar    1  UNL1       -0.3083
     23 C         140.6837  137.6756  162.9843 C.ar    1  UNL1        0.1226
     24 C         141.1267  136.9191  164.2015 C.3     1  UNL1        0.0719
     25 N         141.3370  137.6349  161.6347 N.ar    1  UNL1       -0.2113
     26 C         138.5726  138.9427  164.0248 C.3     1  UNL1        0.1340
     27 C         139.0783  139.6818  165.2282 C.ar    1  UNL1        0.0004
     28 C         139.8630  140.9483  165.0555 C.ar    1  UNL1       -0.0024
     29 C         140.3686  141.6873  166.2589 C.ar    1  UNL1       -0.0003
     30 C         140.0896  141.1597  167.6350 C.ar    1  UNL1       -0.0000
     31 C         139.3049  139.8931  167.8078 C.ar    1  UNL1       -0.0003
     32 C         138.7992  139.1541  166.6043 C.ar    1  UNL1       -0.0024
@<TRIPOS>BOND
     1    15    16    1
     2    16     3    1
     3     3     4   ar
     4     4     5   ar
     5     5     6   ar
     6     6     9    1
     7     9    10    2
     8    10    11    1
     9    11    12    1
    10    12    13    1
    11    13    14    1
    12     6     7   ar
    13     7     8   ar
    14     8     1    1
    15     1    17    1
    16    17    18    2
    17    17    19    2
    18    17    20    1
    19    20    21   ar
    20    21    22   ar
    21    22    26    1
    22    26    27    1
    23    27    28   ar
    24    28    29   ar
    25    29    30   ar
    26    30    31   ar
    27    31    32   ar
    28    22    23   ar
    29    23    24    1
    30    23    25   ar
    31     8     3   ar
    32    25    20   ar
    33    14     9    1
    34    32    27   ar
    35     1     2    1
@<TRIPOS>MOLECULE
*****
 32 35 0 0 0
SMALL
GASTEIGER

@<TRIPOS>ATOM
      1 N         140.9013  144.7804  158.5491 N.pl3   1  UNL1       -0.2091
      2 H         141.8786  144.7384  158.4380 H       1  UNL1        0.1739
      3 C         139.1838  144.1352  156.7095 C.ar    1  UNL1        0.2400
      4 N         138.3134  144.5236  155.5513 N.ar    1  UNL1       -0.2091
      5 C         138.2900  145.9456  155.0744 C.ar    1  UNL1        0.1018
      6 C         139.1370  146.9792  155.7557 C.ar    1  UNL1        0.0165
      7 C         140.0074  146.5908  156.9139 C.ar    1  UNL1        0.0218
      8 C         140.0308  145.1688  157.3908 C.ar    1  UNL1        0.1179
      9 C         139.1136  148.4012  155.2788 C.2     1  UNL1       -0.0200
     10 C         138.4790  149.4654  156.1241 C.2     1  UNL1        0.0015
     11 C         138.4556  150.8874  155.6472 C.3     1  UNL1        0.1680
     12 O         139.0669  151.2451  154.3250 O.3     1  UNL1       -0.3487
     13 C         139.7015  150.1809  153.4797 C.3     1  UNL1        0.1473
     14 C         139.7249  148.7589  153.9566 C.3     1  UNL1        0.0582
     15 C         139.3867  141.5952  156.2028 C.3     1  UNL1        0.2543
     16 O         139.2072  142.7133  157.1864 O.3     1  UNL1       -0.4553
     17 S         140.2826  144.4561  159.8765 S.O2    1  UNL1        0.0919
     18 O         139.6727  145.8256  159.9269 O.2     1  UNL1       -0.1484
     19 O         140.8925  143.0866  159.8262 O.2     1  UNL1       -0.1484
     20 C         139.6640  144.1318  161.2040 C.ar    1  UNL1        0.2244
     21 C         138.7800  142.9570  161.5013 C.ar    1  UNL1        0.1173
     22 N         138.3904  143.0244  162.9482 N.ar    1  UNL1       -0.3083
     23 C         139.0336  144.2410  163.5452 C.ar    1  UNL1        0.1226
     24 C         138.9111  144.6937  164.9700 C.3     1  UNL1        0.0719
     25 N         139.8207  144.9253  162.4672 N.ar    1  UNL1       -0.2113
     26 C         137.5119  142.0470  163.6712 C.3     1  UNL1        0.1340
     27 C         138.0021  140.6552  163.9412 C.ar    1  UNL1        0.0004
     28 C         138.1619  139.6836  162.8097 C.ar    1  UNL1       -0.0024
     29 C         138.6521  138.2920  163.0797 C.ar    1  UNL1       -0.0003
     30 C         138.9825  137.8719  164.4812 C.ar    1  UNL1       -0.0000
     31 C         138.8228  138.8435  165.6128 C.ar    1  UNL1       -0.0003
     32 C         138.3325  140.2352  165.3427 C.ar    1  UNL1       -0.0024
@<TRIPOS>BOND
     1    15    16    1
     2    16     3    1
     3     3     4   ar
     4     4     5   ar
     5     5     6   ar
     6     6     9    1
     7     9    10    2
     8    10    11    1
     9    11    12    1
    10    12    13    1
    11    13    14    1
    12     6     7   ar
    13     7     8   ar
    14     8     1    1
    15     1    17    1
    16    17    18    2
    17    17    19    2
    18    17    20    1
    19    20    21   ar
    20    21    22   ar
    21    22    26    1
    22    26    27    1
    23    27    28   ar
    24    28    29   ar
    25    29    30   ar
    26    30    31   ar
    27    31    32   ar
    28    22    23   ar
    29    23    24    1
    30    23    25   ar
    31     8     3   ar
    32    25    20   ar
    33    14     9    1
    34    32    27   ar
    35     1     2    1
@<TRIPOS>MOLECULE
*****
 32 35 0 0 0
SMALL
GASTEIGER

@<TRIPOS>ATOM
      1 N         142.3547  138.8558  157.6430 N.pl3   1  UNL1       -0.2091
      2 H         142.4444  139.7293  157.1977 H       1  UNL1        0.1739
      3 C         140.8968  137.6593  155.8561 C.ar    1  UNL1        0.2400
      4 N         140.5734  136.4362  155.0502 N.ar    1  UNL1       -0.2091
      5 C         141.3845  135.1866  155.2252 C.ar    1  UNL1        0.1018
      6 C         142.5190  135.1601  156.2061 C.ar    1  UNL1        0.0165
      7 C         142.8424  136.3831  157.0120 C.ar    1  UNL1        0.0218
      8 C         142.0313  137.6327  156.8370 C.ar    1  UNL1        0.1179
      9 C         143.3301  133.9105  156.3811 C.2     1  UNL1       -0.0200
     10 C         143.4263  132.9160  155.2624 C.2     1  UNL1        0.0015
     11 C         144.2374  131.6664  155.4374 C.3     1  UNL1        0.1680
     12 O         144.9524  131.4113  156.7311 O.3     1  UNL1       -0.3487
     13 C         144.8562  132.4059  157.8498 C.3     1  UNL1        0.1473
     14 C         144.0451  133.6554  157.6748 C.3     1  UNL1        0.0582
     15 C         138.6037  138.8174  155.4684 C.3     1  UNL1        0.2543
     16 O         140.0857  138.9088  155.6812 O.3     1  UNL1       -0.4553
     17 S         142.5414  138.7480  159.1274 S.O2    1  UNL1        0.0919
     18 O         143.9881  139.1126  158.9719 O.2     1  UNL1       -0.1484
     19 O         141.0948  138.3835  159.2830 O.2     1  UNL1       -0.1484
     20 C         142.7282  138.6403  160.6119 C.ar    1  UNL1        0.2244
     21 C         141.8573  137.8657  161.5561 C.ar    1  UNL1        0.1173
     22 N         142.4095  138.0349  162.9405 N.ar    1  UNL1       -0.3083
     23 C         143.6216  138.9140  162.8519 C.ar    1  UNL1        0.1226
     24 C         144.4852  139.3436  164.0006 C.3     1  UNL1        0.0719
     25 N         143.8186  139.2881  161.4127 N.ar    1  UNL1       -0.2113
     26 C         141.8481  137.4309  164.1936 C.3     1  UNL1        0.1340
     27 C         140.8237  138.1800  164.9933 C.ar    1  UNL1        0.0004
     28 C         141.2437  139.3273  165.8634 C.ar    1  UNL1       -0.0024
     29 C         140.2193  140.0763  166.6631 C.ar    1  UNL1       -0.0003
     30 C         138.7749  139.6780  166.5928 C.ar    1  UNL1       -0.0000
     31 C         138.3548  138.5306  165.7227 C.ar    1  UNL1       -0.0003
     32 C         139.3793  137.7816  164.9229 C.ar    1  UNL1       -0.0024
@<TRIPOS>BOND
     1    15    16    1
     2    16     3    1
     3     3     4   ar
     4     4     5   ar
     5     5     6   ar
     6     6     9    1
     7     9    10    2
     8    10    11    1
     9    11    12    1
    10    12    13    1
    11    13    14    1
    12     6     7   ar
    13     7     8   ar
    14     8     1    1
    15     1    17    1
    16    17    18    2
    17    17    19    2
    18    17    20    1
    19    20    21   ar
    20    21    22   ar
    21    22    26    1
    22    26    27    1
    23    27    28   ar
    24    28    29   ar
    25    29    30   ar
    26    30    31   ar
    27    31    32   ar
    28    22    23   ar
    29    23    24    1
    30    23    25   ar
    31     8     3   ar
    32    25    20   ar
    33    14     9    1
    34    32    27   ar
    35     1     2    1
@<TRIPOS>MOLECULE
*****
 32 35 0 0 0
SMALL
GASTEIGER

@<TRIPOS>ATOM
      1 N         141.6087  145.3965  159.7228 N.pl3   1  UNL1       -0.2091
      2 H         142.1076  146.2406  159.6348 H       1  UNL1        0.1739
      3 C         140.5948  145.0418  157.3571 C.ar    1  UNL1        0.2400
      4 N         140.3748  144.1718  156.1552 N.ar    1  UNL1       -0.2091
      5 C         140.9488  142.7865  156.1169 C.ar    1  UNL1        0.1018
      6 C         141.7428  142.2712  157.2805 C.ar    1  UNL1        0.0165
      7 C         141.9627  143.1412  158.4824 C.ar    1  UNL1        0.0218
      8 C         141.3887  144.5265  158.5207 C.ar    1  UNL1        0.1179
      9 C         142.3168  140.8859  157.2422 C.2     1  UNL1       -0.0200
     10 C         142.0148  139.9181  158.3476 C.2     1  UNL1        0.0015
     11 C         142.5888  138.5328  158.3093 C.3     1  UNL1        0.1680
     12 O         143.4648  138.1153  157.1655 O.3     1  UNL1       -0.3487
     13 C         143.7667  139.0831  156.0600 C.3     1  UNL1        0.1473
     14 C         143.1928  140.4684  156.0984 C.3     1  UNL1        0.0582
     15 C         139.3088  146.9774  156.1953 C.3     1  UNL1        0.2543
     16 O         140.0208  146.4271  157.3954 O.3     1  UNL1       -0.4553
     17 S         141.0685  144.9803  161.0588 S.O2    1  UNL1        0.0919
     18 O         139.6799  145.3169  160.6022 O.2     1  UNL1       -0.1484
     19 O         142.4571  144.6437  161.5154 O.2     1  UNL1       -0.1484
     20 C         140.5283  144.5641  162.3948 C.ar    1  UNL1        0.2244
     21 C         140.8373  143.2826  163.1104 C.ar    1  UNL1        0.1173
     22 N         140.0842  143.2828  164.4077 N.ar    1  UNL1       -0.3083
     23 C         139.3097  144.5645  164.4938 C.ar    1  UNL1        0.1226
     24 C         138.4174  144.9812  165.6253 C.3     1  UNL1        0.0719
     25 N         139.5842  145.3563  163.2498 N.ar    1  UNL1       -0.2113
     26 C         140.1024  142.1927  165.4379 C.3     1  UNL1        0.1340
     27 C         141.0041  142.3040  166.6316 C.ar    1  UNL1        0.0004
     28 C         140.4211  142.5485  167.9917 C.ar    1  UNL1       -0.0024
     29 C         141.3228  142.6598  169.1853 C.ar    1  UNL1       -0.0003
     30 C         142.8074  142.5264  169.0186 C.ar    1  UNL1       -0.0000
     31 C         143.3906  142.2819  167.6584 C.ar    1  UNL1       -0.0003
     32 C         142.4888  142.1706  166.4648 C.ar    1  UNL1       -0.0024
@<TRIPOS>BOND
     1    15    16    1
     2    16     3    1
     3     3     4   ar
     4     4     5   ar
     5     5     6   ar
     6     6     9    1
     7     9    10    2
     8    10    11    1
     9    11    12    1
    10    12    13    1
    11    13    14    1
    12     6     7   ar
    13     7     8   ar
    14     8     1    1
    15     1    17    1
    16    17    18    2
    17    17    19    2
    18    17    20    1
    19    20    21   ar
    20    21    22   ar
    21    22    26    1
    22    26    27    1
    23    27    28   ar
    24    28    29   ar
    25    29    30   ar
    26    30    31   ar
    27    31    32   ar
    28    22    23   ar
    29    23    24    1
    30    23    25   ar
    31     8     3   ar
    32    25    20   ar
    33    14     9    1
    34    32    27   ar
    35     1     2    1
@<TRIPOS>MOLECULE
*****
 32 35 0 0 0
SMALL
GASTEIGER

@<TRIPOS>ATOM
      1 N         138.8050  143.8740  164.2114 N.pl3   1  UNL1       -0.2091
      2 H         138.4372  144.6589  164.6782 H       1  UNL1        0.1739
      3 C         138.2309  141.3616  164.5403 C.ar    1  UNL1        0.2400
      4 N         138.4236  140.0711  165.2802 N.ar    1  UNL1       -0.2091
      5 C         139.3832  140.0025  166.4310 C.ar    1  UNL1        0.1018
      6 C         140.1500  141.2243  166.8420 C.ar    1  UNL1        0.0165
      7 C         139.9573  142.5148  166.1021 C.ar    1  UNL1        0.0218
      8 C         138.9977  142.5834  164.9513 C.ar    1  UNL1        0.1179
      9 C         141.1096  141.1557  167.9929 C.2     1  UNL1       -0.0200
     10 C         142.2932  142.0761  168.0384 C.2     1  UNL1        0.0015
     11 C         143.2527  142.0075  169.1893 C.3     1  UNL1        0.1680
     12 O         143.0288  141.0185  170.2946 O.3     1  UNL1       -0.3487
     13 C         141.8452  140.0981  170.2490 C.3     1  UNL1        0.1473
     14 C         140.8857  140.1667  169.0982 C.3     1  UNL1        0.0582
     15 C         137.5207  140.6148  162.1553 C.3     1  UNL1        0.2543
     16 O         137.2713  141.4302  163.3894 O.3     1  UNL1       -0.4553
     17 S         139.1726  143.9687  162.7602 S.O2    1  UNL1        0.0919
     18 O         137.7883  144.4501  162.4409 O.2     1  UNL1       -0.1484
     19 O         140.5569  143.4872  163.0795 O.2     1  UNL1       -0.1484
     20 C         139.5402  144.0633  161.3091 C.ar    1  UNL1        0.2244
     21 C         140.5436  145.0059  160.7134 C.ar    1  UNL1        0.1173
     22 N         140.5926  144.7571  159.2349 N.ar    1  UNL1       -0.3083
     23 C         139.6194  143.6608  158.9169 C.ar    1  UNL1        0.1226
     24 C         139.3448  143.0930  157.5559 C.3     1  UNL1        0.0719
     25 N         138.9691  143.2321  160.1988 N.ar    1  UNL1       -0.2113
     26 C         141.4620  145.4781  158.2479 C.3     1  UNL1        0.1340
     27 C         140.8643  146.0392  156.9917 C.ar    1  UNL1        0.0004
     28 C         139.6266  146.8835  157.0621 C.ar    1  UNL1       -0.0024
     29 C         139.0290  147.4446  155.8059 C.ar    1  UNL1       -0.0003
     30 C         139.6691  147.1614  154.4793 C.ar    1  UNL1       -0.0000
     31 C         140.9070  146.3171  154.4088 C.ar    1  UNL1       -0.0003
     32 C         141.5045  145.7560  155.6651 C.ar    1  UNL1       -0.0024
@<TRIPOS>BOND
     1    15    16    1
     2    16     3    1
     3     3     4   ar
     4     4     5   ar
     5     5     6   ar
     6     6     9    1
     7     9    10    2
     8    10    11    1
     9    11    12    1
    10    12    13    1
    11    13    14    1
    12     6     7   ar
    13     7     8   ar
    14     8     1    1
    15     1    17    1
    16    17    18    2
    17    17    19    2
    18    17    20    1
    19    20    21   ar
    20    21    22   ar
    21    22    26    1
    22    26    27    1
    23    27    28   ar
    24    28    29   ar
    25    29    30   ar
    26    30    31   ar
    27    31    32   ar
    28    22    23   ar
    29    23    24    1
    30    23    25   ar
    31     8     3   ar
    32    25    20   ar
    33    14     9    1
    34    32    27   ar
    35     1     2    1
