@<TRIPOS>MOLECULE
*****
 36 41 0 0 0
SMALL
GASTEIGER

@<TRIPOS>ATOM
      1 C         140.2417  144.9590  157.2488 C.3     1  UNL1        0.0666
      2 C         139.6757  143.6088  156.9222 C.3     1  UNL1        0.0294
      3 C         138.4486  143.1182  157.6319 C.3     1  UNL1        0.0730
      4 C         138.4447  139.6497  166.8253 C.3     1  UNL1        0.0326
      5 C         138.6311  139.1385  165.4274 C.ar    1  UNL1       -0.0042
      6 C         138.9075  137.6831  165.1917 C.ar    1  UNL1        0.0003
      7 C         139.0938  137.1719  163.7938 C.ar    1  UNL1        0.0371
      8 C         139.0039  138.1161  162.6317 C.ar    1  UNL1        0.1471
      9 N         139.1422  137.9040  161.1533 N.ar    1  UNL1       -0.2311
     10 C         138.9513  139.2284  160.4752 C.ar    1  UNL1        0.0740
     11 C         138.6951  140.2588  161.5346 C.ar    1  UNL1        0.0577
     12 N         138.7275  139.5714  162.8674 N.ar    1  UNL1       -0.2932
     13 C         138.5411  140.0826  164.2653 C.ar    1  UNL1        0.0768
     14 C         138.4435  141.7283  161.3687 C.3     1  UNL1        0.0627
     15 C         138.3860  142.5301  160.1022 C.3     1  UNL1        0.0784
     16 N         138.5660  142.0605  158.6891 N.3     1  UNL1       -0.2720
     17 C         138.8479  140.6732  158.1932 C.3     1  UNL1        0.0785
     18 C         139.0194  139.4127  158.9881 C.3     1  UNL1        0.0643
     19 S         140.4279  145.3679  158.6799 S.3     1  UNL1       -0.0756
     20 C         141.4812  144.7060  159.5180 C.ar    1  UNL1        0.1932
     21 N         142.6764  143.9594  159.0043 N.ar    1  UNL1       -0.1221
     22 N         143.4582  143.4665  160.1858 N.ar    1  UNL1       -0.1282
     23 C         142.7460  143.9085  161.4298 C.ar    1  UNL1        0.1669
     24 N         141.5242  144.6746  161.0171 N.ar    1  UNL1       -0.2884
     25 C         140.5214  145.2995  161.9412 C.3     1  UNL1        0.1340
     26 C         143.1796  143.6329  162.8390 C.ar    1  UNL1        0.0374
     27 C         143.7975  144.7250  163.6608 C.ar    1  UNL1        0.0031
     28 C         144.2311  144.4494  165.0701 C.ar    1  UNL1        0.0016
     29 C         144.0467  143.0816  165.6576 C.ar    1  UNL1        0.0191
     30 C         143.4288  141.9895  164.8358 C.ar    1  UNL1        0.0810
     31 N         143.2443  140.6217  165.4232 N.ar    1  UNL1       -0.2497
     32 C         142.6264  139.5295  164.6015 C.ar    1  UNL1        0.0593
     33 C         142.4420  138.1617  165.1889 C.3     1  UNL1        0.0521
     34 C         142.1928  139.8052  163.1922 C.ar    1  UNL1        0.0147
     35 C         142.3772  141.1730  162.6047 C.ar    1  UNL1        0.0028
     36 C         142.9952  142.2651  163.4265 C.ar    1  UNL1        0.0206
@<TRIPOS>BOND
     1     4     5    1
     2     5     6   ar
     3     6     7   ar
     4     7     8   ar
     5     8     9   ar
     6     9    10   ar
     7    10    11   ar
     8    11    12   ar
     9    12    13   ar
    10    11    14    1
    11    14    15    1
    12    15    16    1
    13    16     3    1
    14     3     2    1
    15     2     1    1
    16     1    19    1
    17    19    20    1
    18    20    21   ar
    19    21    22   ar
    20    22    23   ar
    21    23    26    1
    22    26    27   ar
    23    27    28   ar
    24    28    29   ar
    25    29    30   ar
    26    30    31   ar
    27    31    32   ar
    28    32    33    1
    29    32    34   ar
    30    34    35   ar
    31    35    36   ar
    32    23    24   ar
    33    24    25    1
    34    16    17    1
    35    17    18    1
    36    13     5   ar
    37    24    20   ar
    38    12     8   ar
    39    36    26   ar
    40    18    10    1
    41    36    30   ar
@<TRIPOS>MOLECULE
*****
 36 41 0 0 0
SMALL
GASTEIGER

@<TRIPOS>ATOM
      1 C         139.6668  144.7871  157.7730 C.3     1  UNL1        0.0666
      2 C         139.7125  143.4103  157.1794 C.3     1  UNL1        0.0294
      3 C         138.6780  142.3938  157.5620 C.3     1  UNL1        0.0730
      4 C         143.7308  138.7563  165.1637 C.3     1  UNL1        0.0326
      5 C         142.3845  138.5925  164.5228 C.ar    1  UNL1       -0.0042
      6 C         141.3955  137.6198  165.0936 C.ar    1  UNL1        0.0003
      7 C         140.0493  137.4560  164.4527 C.ar    1  UNL1        0.0371
      8 C         139.6920  138.2649  163.2411 C.ar    1  UNL1        0.1471
      9 N         138.4509  138.3184  162.4003 N.ar    1  UNL1       -0.2311
     10 C         138.6730  139.3243  161.3098 C.ar    1  UNL1        0.0740
     11 C         140.0511  139.8922  161.4767 C.ar    1  UNL1        0.0577
     12 N         140.6810  139.2375  162.6703 N.ar    1  UNL1       -0.2932
     13 C         142.0272  139.4014  163.3111 C.ar    1  UNL1        0.0768
     14 C         140.7428  140.9290  160.6420 C.3     1  UNL1        0.0627
     15 C         140.2271  141.6538  159.4341 C.3     1  UNL1        0.0784
     16 N         138.8924  141.5207  158.7628 N.3     1  UNL1       -0.2720
     17 C         137.7436  140.6302  159.1334 C.3     1  UNL1        0.0785
     18 C         137.6460  139.6526  160.2670 C.3     1  UNL1        0.0643
     19 S         140.8407  145.3096  158.5469 S.3     1  UNL1       -0.0756
     20 C         140.8489  145.2260  160.0445 C.ar    1  UNL1        0.1932
     21 N         139.8776  145.8965  160.9703 N.ar    1  UNL1       -0.1221
     22 N         140.2582  145.5422  162.3773 N.ar    1  UNL1       -0.1282
     23 C         141.4647  144.6527  162.3211 C.ar    1  UNL1        0.1669
     24 N         141.8298  144.4573  160.8793 N.ar    1  UNL1       -0.2884
     25 C         142.9748  143.6372  160.3631 C.3     1  UNL1        0.1340
     26 C         142.1806  144.0624  163.4996 C.ar    1  UNL1        0.0374
     27 C         143.5913  144.4722  163.8026 C.ar    1  UNL1        0.0031
     28 C         144.3071  143.8818  164.9812 C.ar    1  UNL1        0.0016
     29 C         143.6123  142.8816  165.8568 C.ar    1  UNL1        0.0191
     30 C         142.2015  142.4718  165.5538 C.ar    1  UNL1        0.0810
     31 N         141.5066  141.4716  166.4294 N.ar    1  UNL1       -0.2497
     32 C         140.0958  141.0618  166.1265 C.ar    1  UNL1        0.0593
     33 C         139.4008  140.0616  167.0021 C.3     1  UNL1        0.0521
     34 C         139.3800  141.6522  164.9479 C.ar    1  UNL1        0.0147
     35 C         140.0749  142.6524  164.0723 C.ar    1  UNL1        0.0028
     36 C         141.4857  143.0622  164.3753 C.ar    1  UNL1        0.0206
@<TRIPOS>BOND
     1     4     5    1
     2     5     6   ar
     3     6     7   ar
     4     7     8   ar
     5     8     9   ar
     6     9    10   ar
     7    10    11   ar
     8    11    12   ar
     9    12    13   ar
    10    11    14    1
    11    14    15    1
    12    15    16    1
    13    16     3    1
    14     3     2    1
    15     2     1    1
    16     1    19    1
    17    19    20    1
    18    20    21   ar
    19    21    22   ar
    20    22    23   ar
    21    23    26    1
    22    26    27   ar
    23    27    28   ar
    24    28    29   ar
    25    29    30   ar
    26    30    31   ar
    27    31    32   ar
    28    32    33    1
    29    32    34   ar
    30    34    35   ar
    31    35    36   ar
    32    23    24   ar
    33    24    25    1
    34    16    17    1
    35    17    18    1
    36    13     5   ar
    37    24    20   ar
    38    12     8   ar
    39    36    26   ar
    40    18    10    1
    41    36    30   ar
@<TRIPOS>MOLECULE
*****
 36 41 0 0 0
SMALL
GASTEIGER

@<TRIPOS>ATOM
      1 C         140.5823  144.8510  158.1013 C.3     1  UNL1        0.0666
      2 C         141.3570  144.9931  159.3778 C.3     1  UNL1        0.0294
      3 C         140.6786  145.5047  160.6140 C.3     1  UNL1        0.0730
      4 C         143.7666  138.2377  166.4623 C.3     1  UNL1        0.0326
      5 C         142.8297  139.4080  166.5168 C.ar    1  UNL1       -0.0042
      6 C         142.0557  139.6913  167.7700 C.ar    1  UNL1        0.0003
      7 C         141.1189  140.8615  167.8244 C.ar    1  UNL1        0.0371
      8 C         140.9561  141.7484  166.6257 C.ar    1  UNL1        0.1471
      9 N         140.1131  142.9654  166.3847 N.ar    1  UNL1       -0.2311
     10 C         140.3661  143.4342  164.9824 C.ar    1  UNL1        0.0740
     11 C         141.3654  142.5069  164.3569 C.ar    1  UNL1        0.0577
     12 N         141.7301  141.4650  165.3724 N.ar    1  UNL1       -0.2932
     13 C         142.6669  140.2948  165.3180 C.ar    1  UNL1        0.0768
     14 C         141.9427  142.5497  162.9730 C.3     1  UNL1        0.0627
     15 C         141.6630  143.5304  161.8730 C.3     1  UNL1        0.0784
     16 N         140.7372  144.7104  161.8851 N.3     1  UNL1       -0.2720
     17 C         139.8623  145.2014  163.0003 C.3     1  UNL1        0.0785
     18 C         139.6971  144.6334  164.3787 C.3     1  UNL1        0.0643
     19 S         139.7514  143.6257  157.8607 S.3     1  UNL1       -0.0756
     20 C         139.4309  142.7016  158.9979 C.ar    1  UNL1        0.1932
     21 N         138.1774  142.7188  159.8216 N.ar    1  UNL1       -0.1221
     22 N         138.2794  141.6259  160.8439 N.ar    1  UNL1       -0.1282
     23 C         139.5961  140.9333  160.6521 C.ar    1  UNL1        0.1669
     24 N         140.3077  141.5981  159.5112 N.ar    1  UNL1       -0.2884
     25 C         141.6589  141.2248  158.9774 C.3     1  UNL1        0.1340
     26 C         140.1107  139.7785  161.4594 C.ar    1  UNL1        0.0374
     27 C         141.1373  138.8537  160.8757 C.ar    1  UNL1        0.0031
     28 C         141.6519  137.6990  161.6830 C.ar    1  UNL1        0.0016
     29 C         141.1400  137.4690  163.0741 C.ar    1  UNL1        0.0191
     30 C         140.1134  138.3939  163.6578 C.ar    1  UNL1        0.0810
     31 N         139.6014  138.1641  165.0488 N.ar    1  UNL1       -0.2497
     32 C         138.5748  139.0889  165.6327 C.ar    1  UNL1        0.0593
     33 C         138.0629  138.8591  167.0237 C.3     1  UNL1        0.0521
     34 C         138.0602  140.2437  164.8252 C.ar    1  UNL1        0.0147
     35 C         138.5722  140.4735  163.4342 C.ar    1  UNL1        0.0028
     36 C         139.5988  139.5486  162.8505 C.ar    1  UNL1        0.0206
@<TRIPOS>BOND
     1     4     5    1
     2     5     6   ar
     3     6     7   ar
     4     7     8   ar
     5     8     9   ar
     6     9    10   ar
     7    10    11   ar
     8    11    12   ar
     9    12    13   ar
    10    11    14    1
    11    14    15    1
    12    15    16    1
    13    16     3    1
    14     3     2    1
    15     2     1    1
    16     1    19    1
    17    19    20    1
    18    20    21   ar
    19    21    22   ar
    20    22    23   ar
    21    23    26    1
    22    26    27   ar
    23    27    28   ar
    24    28    29   ar
    25    29    30   ar
    26    30    31   ar
    27    31    32   ar
    28    32    33    1
    29    32    34   ar
    30    34    35   ar
    31    35    36   ar
    32    23    24   ar
    33    24    25    1
    34    16    17    1
    35    17    18    1
    36    13     5   ar
    37    24    20   ar
    38    12     8   ar
    39    36    26   ar
    40    18    10    1
    41    36    30   ar
@<TRIPOS>MOLECULE
*****
 36 41 0 0 0
SMALL
GASTEIGER

@<TRIPOS>ATOM
      1 C         140.3212  145.3414  159.1742 C.3     1  UNL1        0.0666
      2 C         141.6201  145.2654  158.4279 C.3     1  UNL1        0.0294
      3 C         142.3114  143.9451  158.2578 C.3     1  UNL1        0.0730
      4 C         143.4637  138.3432  166.2476 C.3     1  UNL1        0.0326
      5 C         142.5766  138.4162  165.0402 C.ar    1  UNL1       -0.0042
      6 C         141.4886  137.4020  164.8465 C.ar    1  UNL1        0.0003
      7 C         140.6015  137.4751  163.6391 C.ar    1  UNL1        0.0371
      8 C         140.8025  138.5624  162.6255 C.ar    1  UNL1        0.1471
      9 N         140.0895  138.8861  161.3461 N.ar    1  UNL1       -0.2311
     10 C         140.7369  140.1004  160.7491 C.ar    1  UNL1        0.0740
     11 C         141.8499  140.5271  161.6596 C.ar    1  UNL1        0.0577
     12 N         141.8905  139.5766  162.8192 N.ar    1  UNL1       -0.2932
     13 C         142.7775  139.5035  164.0266 C.ar    1  UNL1        0.0768
     14 C         142.7934  141.6830  161.5052 C.3     1  UNL1        0.0627
     15 C         142.8567  142.6977  160.4022 C.3     1  UNL1        0.0784
     16 N         141.9923  142.8069  159.1813 N.3     1  UNL1       -0.2720
     17 C         140.8510  141.9286  158.7616 C.3     1  UNL1        0.0785
     18 C         140.2923  140.7241  159.4594 C.3     1  UNL1        0.0643
     19 S         140.3189  145.6078  160.6503 S.3     1  UNL1       -0.0756
     20 C         140.0199  144.4965  161.6125 C.ar    1  UNL1        0.1932
     21 N         138.9462  143.4607  161.4570 N.ar    1  UNL1       -0.1221
     22 N         139.0047  142.5500  162.6475 N.ar    1  UNL1       -0.1282
     23 C         140.1147  143.0230  163.5387 C.ar    1  UNL1        0.1669
     24 N         140.7421  144.2261  162.8991 N.ar    1  UNL1       -0.2884
     25 C         141.8901  145.0193  163.4494 C.3     1  UNL1        0.1340
     26 C         140.5252  142.4021  164.8410 C.ar    1  UNL1        0.0374
     27 C         141.6954  142.9546  165.5995 C.ar    1  UNL1        0.0031
     28 C         142.1058  142.3337  166.9017 C.ar    1  UNL1        0.0016
     29 C         141.3462  141.1602  167.4456 C.ar    1  UNL1        0.0191
     30 C         140.1760  140.6076  166.6870 C.ar    1  UNL1        0.0810
     31 N         139.4163  139.4341  167.2308 N.ar    1  UNL1       -0.2497
     32 C         138.2461  138.8815  166.4723 C.ar    1  UNL1        0.0593
     33 C         137.4864  137.7079  167.0161 C.3     1  UNL1        0.0521
     34 C         137.8356  139.5025  165.1700 C.ar    1  UNL1        0.0147
     35 C         138.5953  140.6760  164.6263 C.ar    1  UNL1        0.0028
     36 C         139.7655  141.2286  165.3848 C.ar    1  UNL1        0.0206
@<TRIPOS>BOND
     1     4     5    1
     2     5     6   ar
     3     6     7   ar
     4     7     8   ar
     5     8     9   ar
     6     9    10   ar
     7    10    11   ar
     8    11    12   ar
     9    12    13   ar
    10    11    14    1
    11    14    15    1
    12    15    16    1
    13    16     3    1
    14     3     2    1
    15     2     1    1
    16     1    19    1
    17    19    20    1
    18    20    21   ar
    19    21    22   ar
    20    22    23   ar
    21    23    26    1
    22    26    27   ar
    23    27    28   ar
    24    28    29   ar
    25    29    30   ar
    26    30    31   ar
    27    31    32   ar
    28    32    33    1
    29    32    34   ar
    30    34    35   ar
    31    35    36   ar
    32    23    24   ar
    33    24    25    1
    34    16    17    1
    35    17    18    1
    36    13     5   ar
    37    24    20   ar
    38    12     8   ar
    39    36    26   ar
    40    18    10    1
    41    36    30   ar
@<TRIPOS>MOLECULE
*****
 36 41 0 0 0
SMALL
GASTEIGER

@<TRIPOS>ATOM
      1 C         141.3755  145.2856  158.6315 C.3     1  UNL1        0.0666
      2 C         140.1249  145.2666  159.4596 C.3     1  UNL1        0.0294
      3 C         140.1699  145.6957  160.8962 C.3     1  UNL1        0.0730
      4 C         142.9752  141.2390  169.1917 C.3     1  UNL1        0.0326
      5 C         141.9056  141.1089  168.1480 C.ar    1  UNL1       -0.0042
      6 C         140.8777  140.0222  168.2589 C.ar    1  UNL1        0.0003
      7 C         139.8082  139.8921  167.2153 C.ar    1  UNL1        0.0371
      8 C         139.7667  140.8488  166.0607 C.ar    1  UNL1        0.1471
      9 N         138.8389  140.9668  164.8879 N.ar    1  UNL1       -0.2311
     10 C         139.2936  142.1265  164.0522 C.ar    1  UNL1        0.0740
     11 C         140.5021  142.7251  164.7084 C.ar    1  UNL1        0.0577
     12 N         140.7946  141.9355  165.9497 N.ar    1  UNL1       -0.2932
     13 C         141.8641  142.0656  166.9934 C.ar    1  UNL1        0.0768
     14 C         141.3225  143.8997  164.2639 C.3     1  UNL1        0.0627
     15 C         141.1366  144.7657  163.0532 C.3     1  UNL1        0.0784
     16 N         140.0847  144.6709  161.9882 N.3     1  UNL1       -0.2720
     17 C         138.9587  143.6868  161.8707 C.3     1  UNL1        0.0785
     18 C         138.6066  142.5545  162.7892 C.3     1  UNL1        0.0643
     19 S         142.2107  144.0461  158.5058 S.3     1  UNL1       -0.0756
     20 C         142.3417  143.1088  159.6696 C.ar    1  UNL1        0.1932
     21 N         143.3986  143.1653  160.7325 N.ar    1  UNL1       -0.1221
     22 N         143.1490  142.0419  161.6946 N.ar    1  UNL1       -0.1282
     23 C         141.9378  141.2911  161.2263 C.ar    1  UNL1        0.1669
     24 N         141.4389  141.9505  159.9747 N.ar    1  UNL1       -0.2884
     25 C         140.2464  141.5260  159.1698 C.3     1  UNL1        0.1340
     26 C         141.3319  140.0915  161.8925 C.ar    1  UNL1        0.0374
     27 C         140.1278  139.4284  161.2922 C.ar    1  UNL1        0.0031
     28 C         139.5219  138.2288  161.9584 C.ar    1  UNL1        0.0016
     29 C         140.1201  137.6923  163.2250 C.ar    1  UNL1        0.0191
     30 C         141.3242  138.3553  163.8253 C.ar    1  UNL1        0.0810
     31 N         141.9225  137.8188  165.0919 N.ar    1  UNL1       -0.2497
     32 C         143.1266  138.4819  165.6923 C.ar    1  UNL1        0.0593
     33 C         143.7249  137.9454  166.9589 C.3     1  UNL1        0.0521
     34 C         143.7325  139.6815  165.0260 C.ar    1  UNL1        0.0147
     35 C         143.1342  140.2180  163.7594 C.ar    1  UNL1        0.0028
     36 C         141.9301  139.5549  163.1591 C.ar    1  UNL1        0.0206
@<TRIPOS>BOND
     1     4     5    1
     2     5     6   ar
     3     6     7   ar
     4     7     8   ar
     5     8     9   ar
     6     9    10   ar
     7    10    11   ar
     8    11    12   ar
     9    12    13   ar
    10    11    14    1
    11    14    15    1
    12    15    16    1
    13    16     3    1
    14     3     2    1
    15     2     1    1
    16     1    19    1
    17    19    20    1
    18    20    21   ar
    19    21    22   ar
    20    22    23   ar
    21    23    26    1
    22    26    27   ar
    23    27    28   ar
    24    28    29   ar
    25    29    30   ar
    26    30    31   ar
    27    31    32   ar
    28    32    33    1
    29    32    34   ar
    30    34    35   ar
    31    35    36   ar
    32    23    24   ar
    33    24    25    1
    34    16    17    1
    35    17    18    1
    36    13     5   ar
    37    24    20   ar
    38    12     8   ar
    39    36    26   ar
    40    18    10    1
    41    36    30   ar
@<TRIPOS>MOLECULE
*****
 36 41 0 0 0
SMALL
GASTEIGER

@<TRIPOS>ATOM
      1 C         144.2726  140.4271  156.7332 C.3     1  UNL1        0.0666
      2 C         144.6697  141.8734  156.7080 C.3     1  UNL1        0.0294
      3 C         144.9785  142.5889  157.9898 C.3     1  UNL1        0.0730
      4 C         140.2093  142.9812  166.5717 C.3     1  UNL1        0.0326
      5 C         140.0446  143.4795  165.1664 C.ar    1  UNL1       -0.0042
      6 C         138.8437  144.2989  164.7971 C.ar    1  UNL1        0.0003
      7 C         138.6790  144.7972  163.3920 C.ar    1  UNL1        0.0371
      8 C         139.7152  144.4759  162.3560 C.ar    1  UNL1        0.1471
      9 N         139.8225  144.8264  160.9015 N.ar    1  UNL1       -0.2311
     10 C         141.0898  144.2234  160.3718 C.ar    1  UNL1        0.0740
     11 C         141.7655  143.5005  161.4989 C.ar    1  UNL1        0.0577
     12 N         140.9160  143.6565  162.7252 N.ar    1  UNL1       -0.2932
     13 C         141.0807  143.1582  164.1304 C.ar    1  UNL1        0.0768
     14 C         143.0570  142.7377  161.4799 C.3     1  UNL1        0.0627
     15 C         143.9917  142.5096  160.3290 C.3     1  UNL1        0.0784
     16 N         143.8656  142.9879  158.9130 N.3     1  UNL1       -0.2720
     17 C         142.7739  143.8124  158.2980 C.3     1  UNL1        0.0785
     18 C         141.5385  144.3623  158.9472 C.3     1  UNL1        0.0643
     19 S         142.8642  140.0419  157.0762 S.3     1  UNL1       -0.0756
     20 C         142.5812  139.2775  158.3354 C.ar    1  UNL1        0.1932
     21 N         143.3234  138.0663  158.8172 N.ar    1  UNL1       -0.1221
     22 N         142.7073  137.6302  160.1134 N.ar    1  UNL1       -0.1282
     23 C         141.5842  138.5719  160.4327 C.ar    1  UNL1        0.1669
     24 N         141.5063  139.5900  159.3339 N.ar    1  UNL1       -0.2884
     25 C         140.5256  140.7218  159.2485 C.3     1  UNL1        0.1340
     26 C         140.6952  138.5070  161.6391 C.ar    1  UNL1        0.0374
     27 C         139.2962  137.9810  161.5124 C.ar    1  UNL1        0.0031
     28 C         138.4071  137.9160  162.7188 C.ar    1  UNL1        0.0016
     29 C         138.9170  138.3771  164.0519 C.ar    1  UNL1        0.0191
     30 C         140.3161  138.9031  164.1787 C.ar    1  UNL1        0.0810
     31 N         140.8260  139.3641  165.5118 N.ar    1  UNL1       -0.2497
     32 C         142.2251  139.8901  165.6387 C.ar    1  UNL1        0.0593
     33 C         142.7351  140.3512  166.9718 C.3     1  UNL1        0.0521
     34 C         143.1141  139.9551  164.4322 C.ar    1  UNL1        0.0147
     35 C         142.6041  139.4940  163.0991 C.ar    1  UNL1        0.0028
     36 C         141.2051  138.9680  162.9723 C.ar    1  UNL1        0.0206
@<TRIPOS>BOND
     1     4     5    1
     2     5     6   ar
     3     6     7   ar
     4     7     8   ar
     5     8     9   ar
     6     9    10   ar
     7    10    11   ar
     8    11    12   ar
     9    12    13   ar
    10    11    14    1
    11    14    15    1
    12    15    16    1
    13    16     3    1
    14     3     2    1
    15     2     1    1
    16     1    19    1
    17    19    20    1
    18    20    21   ar
    19    21    22   ar
    20    22    23   ar
    21    23    26    1
    22    26    27   ar
    23    27    28   ar
    24    28    29   ar
    25    29    30   ar
    26    30    31   ar
    27    31    32   ar
    28    32    33    1
    29    32    34   ar
    30    34    35   ar
    31    35    36   ar
    32    23    24   ar
    33    24    25    1
    34    16    17    1
    35    17    18    1
    36    13     5   ar
    37    24    20   ar
    38    12     8   ar
    39    36    26   ar
    40    18    10    1
    41    36    30   ar
@<TRIPOS>MOLECULE
*****
 36 41 0 0 0
SMALL
GASTEIGER

@<TRIPOS>ATOM
      1 C         142.2614  144.8125  157.2609 C.3     1  UNL1        0.0666
      2 C         142.5519  143.3411  157.2375 C.3     1  UNL1        0.0294
      3 C         143.7481  142.8011  157.9640 C.3     1  UNL1        0.0730
      4 C         141.3355  141.3496  167.3779 C.3     1  UNL1        0.0326
      5 C         141.8503  140.5596  166.2111 C.ar    1  UNL1       -0.0042
      6 C         142.1320  139.0942  166.3633 C.ar    1  UNL1        0.0003
      7 C         142.6467  138.3044  165.1966 C.ar    1  UNL1        0.0371
      8 C         142.8797  138.9799  163.8777 C.ar    1  UNL1        0.1471
      9 N         143.3773  138.4643  162.5600 N.ar    1  UNL1       -0.2311
     10 C         143.4031  139.6111  161.5934 C.ar    1  UNL1        0.0740
     11 C         142.9214  140.8353  162.3138 C.ar    1  UNL1        0.0577
     12 N         142.5979  140.4453  163.7256 N.ar    1  UNL1       -0.2932
     13 C         142.0832  141.2352  164.8923 C.ar    1  UNL1        0.0768
     14 C         142.7646  142.2304  161.7853 C.3     1  UNL1        0.0627
     15 C         143.0508  142.7457  160.4059 C.3     1  UNL1        0.0784
     16 N         143.5644  141.9931  159.2144 N.3     1  UNL1       -0.2720
     17 C         143.9188  140.5395  159.1079 C.3     1  UNL1        0.0785
     18 C         143.8469  139.4793  160.1666 C.3     1  UNL1        0.0643
     19 S         140.9196  145.3048  157.7157 S.3     1  UNL1       -0.0756
     20 C         140.0724  144.4520  158.6130 C.ar    1  UNL1        0.1932
     21 N         139.1272  143.3747  158.1706 N.ar    1  UNL1       -0.1221
     22 N         138.4924  142.7836  159.3944 N.ar    1  UNL1       -0.1282
     23 C         139.0453  143.4957  160.5932 C.ar    1  UNL1        0.1669
     24 N         140.0219  144.5269  160.1103 N.ar    1  UNL1       -0.2884
     25 C         140.8096  145.4676  160.9732 C.3     1  UNL1        0.1340
     26 C         138.6850  143.2243  162.0238 C.ar    1  UNL1        0.0374
     27 C         138.1871  144.3384  162.8961 C.ar    1  UNL1        0.0031
     28 C         137.8268  144.0670  164.3267 C.ar    1  UNL1        0.0016
     29 C         137.9644  142.6816  164.8850 C.ar    1  UNL1        0.0191
     30 C         138.4624  141.5676  164.0126 C.ar    1  UNL1        0.0810
     31 N         138.6000  140.1821  164.5708 N.ar    1  UNL1       -0.2497
     32 C         139.0980  139.0680  163.6985 C.ar    1  UNL1        0.0593
     33 C         139.2356  137.6826  164.2567 C.3     1  UNL1        0.0521
     34 C         139.4583  139.3395  162.2679 C.ar    1  UNL1        0.0147
     35 C         139.3206  140.7249  161.7097 C.ar    1  UNL1        0.0028
     36 C         138.8227  141.8390  162.5820 C.ar    1  UNL1        0.0206
@<TRIPOS>BOND
     1     4     5    1
     2     5     6   ar
     3     6     7   ar
     4     7     8   ar
     5     8     9   ar
     6     9    10   ar
     7    10    11   ar
     8    11    12   ar
     9    12    13   ar
    10    11    14    1
    11    14    15    1
    12    15    16    1
    13    16     3    1
    14     3     2    1
    15     2     1    1
    16     1    19    1
    17    19    20    1
    18    20    21   ar
    19    21    22   ar
    20    22    23   ar
    21    23    26    1
    22    26    27   ar
    23    27    28   ar
    24    28    29   ar
    25    29    30   ar
    26    30    31   ar
    27    31    32   ar
    28    32    33    1
    29    32    34   ar
    30    34    35   ar
    31    35    36   ar
    32    23    24   ar
    33    24    25    1
    34    16    17    1
    35    17    18    1
    36    13     5   ar
    37    24    20   ar
    38    12     8   ar
    39    36    26   ar
    40    18    10    1
    41    36    30   ar
@<TRIPOS>MOLECULE
*****
 36 41 0 0 0
SMALL
GASTEIGER

@<TRIPOS>ATOM
      1 C         140.7228  144.4606  157.1973 C.3     1  UNL1        0.0666
      2 C         140.0411  143.1250  157.2357 C.3     1  UNL1        0.0294
      3 C         138.7322  142.9712  157.9521 C.3     1  UNL1        0.0730
      4 C         140.2527  141.7246  167.5792 C.3     1  UNL1        0.0326
      5 C         139.6528  140.9757  166.4262 C.ar    1  UNL1       -0.0042
      6 C         139.0656  139.6123  166.6415 C.ar    1  UNL1        0.0003
      7 C         138.4657  138.8635  165.4886 C.ar    1  UNL1        0.0371
      8 C         138.4530  139.4780  164.1203 C.ar    1  UNL1        0.1471
      9 N         137.9352  138.9829  162.8024 N.ar    1  UNL1       -0.2311
     10 C         138.2024  140.0403  161.7726 C.ar    1  UNL1        0.0740
     11 C         138.8853  141.1888  162.4540 C.ar    1  UNL1        0.0577
     12 N         139.0402  140.8414  163.9049 N.ar    1  UNL1       -0.2932
     13 C         139.6401  141.5902  165.0579 C.ar    1  UNL1        0.0768
     14 C         139.3573  142.4825  161.8592 C.3     1  UNL1        0.0627
     15 C         139.2628  142.9470  160.4359 C.3     1  UNL1        0.0784
     16 N         138.6731  142.2326  159.2563 N.3     1  UNL1       -0.2720
     17 C         138.0322  140.8772  159.2082 C.3     1  UNL1        0.0785
     18 C         137.8227  139.9016  160.3281 C.3     1  UNL1        0.0643
     19 S         141.8902  144.7330  158.0989 S.3     1  UNL1       -0.0756
     20 C         142.6423  143.5920  158.7174 C.ar    1  UNL1        0.1932
     21 N         143.2793  142.4524  157.9789 N.ar    1  UNL1       -0.1221
     22 N         143.9202  141.5464  158.9880 N.ar    1  UNL1       -0.1282
     23 C         143.6793  142.1262  160.3503 C.ar    1  UNL1        0.1669
     24 N         142.8895  143.3905  160.1831 N.ar    1  UNL1       -0.2884
     25 C         142.4280  144.2943  161.2876 C.3     1  UNL1        0.1340
     26 C         144.1462  141.5439  161.6515 C.ar    1  UNL1        0.0374
     27 C         145.3429  142.1233  162.3460 C.ar    1  UNL1        0.0031
     28 C         145.8098  141.5411  163.6471 C.ar    1  UNL1        0.0016
     29 C         145.0802  140.3794  164.2538 C.ar    1  UNL1        0.0191
     30 C         143.8835  139.8000  163.5593 C.ar    1  UNL1        0.0810
     31 N         143.1538  138.6384  164.1659 N.ar    1  UNL1       -0.2497
     32 C         141.9571  138.0589  163.4714 C.ar    1  UNL1        0.0593
     33 C         141.2273  136.8972  164.0781 C.3     1  UNL1        0.0521
     34 C         141.4902  138.6412  162.1703 C.ar    1  UNL1        0.0147
     35 C         142.2199  139.8029  161.5636 C.ar    1  UNL1        0.0028
     36 C         143.4166  140.3823  162.2582 C.ar    1  UNL1        0.0206
@<TRIPOS>BOND
     1     4     5    1
     2     5     6   ar
     3     6     7   ar
     4     7     8   ar
     5     8     9   ar
     6     9    10   ar
     7    10    11   ar
     8    11    12   ar
     9    12    13   ar
    10    11    14    1
    11    14    15    1
    12    15    16    1
    13    16     3    1
    14     3     2    1
    15     2     1    1
    16     1    19    1
    17    19    20    1
    18    20    21   ar
    19    21    22   ar
    20    22    23   ar
    21    23    26    1
    22    26    27   ar
    23    27    28   ar
    24    28    29   ar
    25    29    30   ar
    26    30    31   ar
    27    31    32   ar
    28    32    33    1
    29    32    34   ar
    30    34    35   ar
    31    35    36   ar
    32    23    24   ar
    33    24    25    1
    34    16    17    1
    35    17    18    1
    36    13     5   ar
    37    24    20   ar
    38    12     8   ar
    39    36    26   ar
    40    18    10    1
    41    36    30   ar
@<TRIPOS>MOLECULE
*****
 36 41 0 0 0
SMALL
GASTEIGER

@<TRIPOS>ATOM
      1 C         140.6287  145.3335  159.1756 C.3     1  UNL1        0.0666
      2 C         141.1903  145.5059  160.5558 C.3     1  UNL1        0.0294
      3 C         140.2958  145.3686  161.7521 C.3     1  UNL1        0.0730
      4 C         139.2187  140.1620  170.0153 C.3     1  UNL1        0.0326
      5 C         140.3256  140.7143  169.1668 C.ar    1  UNL1       -0.0042
      6 C         141.7555  140.4918  169.5614 C.ar    1  UNL1        0.0003
      7 C         142.8624  141.0440  168.7130 C.ar    1  UNL1        0.0371
      8 C         142.5393  141.8187  167.4698 C.ar    1  UNL1        0.1471
      9 N         143.4116  142.4785  166.4433 N.ar    1  UNL1       -0.2311
     10 C         142.5207  143.1089  165.4142 C.ar    1  UNL1        0.0740
     11 C         141.0980  142.8386  165.8047 C.ar    1  UNL1        0.0577
     12 N         141.1094  142.0412  167.0751 N.ar    1  UNL1       -0.2932
     13 C         140.0026  141.4890  167.9236 C.ar    1  UNL1        0.0768
     14 C         139.8399  143.2569  165.1030 C.3     1  UNL1        0.0627
     15 C         139.6941  144.0489  163.8374 C.3     1  UNL1        0.0784
     16 N         140.7702  144.6180  162.9611 N.3     1  UNL1       -0.2720
     17 C         142.2579  144.5359  163.1338 C.3     1  UNL1        0.0785
     18 C         143.0370  143.8642  164.2255 C.3     1  UNL1        0.0643
     19 S         139.8996  144.0733  158.8147 S.3     1  UNL1       -0.0756
     20 C         140.3285  142.7631  159.4059 C.ar    1  UNL1        0.1932
     21 N         141.5738  142.0036  159.0563 N.ar    1  UNL1       -0.1221
     22 N         141.6024  140.7535  159.8848 N.ar    1  UNL1       -0.1282
     23 C         140.3746  140.7404  160.7465 C.ar    1  UNL1        0.1669
     24 N         139.5873  141.9825  160.4505 N.ar    1  UNL1       -0.2884
     25 C         138.2871  142.3749  161.0873 C.3     1  UNL1        0.1340
     26 C         139.9999  139.6728  161.7312 C.ar    1  UNL1        0.0374
     27 C         138.7102  138.9238  161.5709 C.ar    1  UNL1        0.0031
     28 C         138.3356  137.8562  162.5557 C.ar    1  UNL1        0.0016
     29 C         139.2505  137.5375  163.7008 C.ar    1  UNL1        0.0191
     30 C         140.5402  138.2865  163.8611 C.ar    1  UNL1        0.0810
     31 N         141.4552  137.9679  165.0061 N.ar    1  UNL1       -0.2497
     32 C         142.7450  138.7168  165.1665 C.ar    1  UNL1        0.0593
     33 C         143.6600  138.3982  166.3116 C.3     1  UNL1        0.0521
     34 C         143.1196  139.7845  164.1817 C.ar    1  UNL1        0.0147
     35 C         142.2046  140.1031  163.0366 C.ar    1  UNL1        0.0028
     36 C         140.9149  139.3541  162.8763 C.ar    1  UNL1        0.0206
@<TRIPOS>BOND
     1     4     5    1
     2     5     6   ar
     3     6     7   ar
     4     7     8   ar
     5     8     9   ar
     6     9    10   ar
     7    10    11   ar
     8    11    12   ar
     9    12    13   ar
    10    11    14    1
    11    14    15    1
    12    15    16    1
    13    16     3    1
    14     3     2    1
    15     2     1    1
    16     1    19    1
    17    19    20    1
    18    20    21   ar
    19    21    22   ar
    20    22    23   ar
    21    23    26    1
    22    26    27   ar
    23    27    28   ar
    24    28    29   ar
    25    29    30   ar
    26    30    31   ar
    27    31    32   ar
    28    32    33    1
    29    32    34   ar
    30    34    35   ar
    31    35    36   ar
    32    23    24   ar
    33    24    25    1
    34    16    17    1
    35    17    18    1
    36    13     5   ar
    37    24    20   ar
    38    12     8   ar
    39    36    26   ar
    40    18    10    1
    41    36    30   ar
