@<TRIPOS>MOLECULE
*****
 36 40 0 0 0
SMALL
GASTEIGER

@<TRIPOS>ATOM
      1 N         138.8776  140.7192  163.8162 N.am    1  UNL1       -0.2681
      2 C         139.3178  139.6911  162.8165 C.2     1  UNL1        0.3078
      3 O         139.9462  138.4117  163.2836 O.2     1  UNL1       -0.2522
      4 N         139.1296  139.9425  161.3498 N.am    1  UNL1       -0.2605
      5 C         139.5698  138.9144  160.3501 C.3     1  UNL1        0.1164
      6 C         139.3816  139.1658  158.8834 C.3     1  UNL1        0.1138
      7 N         138.7532  140.4453  158.4163 N.pl3   1  UNL1       -0.2884
      8 C         138.3130  141.4733  159.4159 C.3     1  UNL1        0.1138
      9 C         138.5012  141.2219  160.8827 C.3     1  UNL1        0.1164
     10 H         138.4652  141.5589  163.5097 H       1  UNL1        0.1564
     11 C         138.5650  140.6966  156.9495 C.ar    1  UNL1        0.1544
     12 N         139.7523  140.9864  156.0798 N.ar    1  UNL1       -0.1974
     13 C         139.5642  141.2378  154.6132 C.ar    1  UNL1        0.2154
     14 N         140.7515  141.5276  153.7435 N.pl3   1  UNL1       -0.3274
     15 N         138.1886  141.1993  154.0159 N.ar    1  UNL1       -0.2057
     16 C         137.0013  140.9095  154.8856 C.ar    1  UNL1        0.1353
     17 S         135.5360  140.8069  154.5819 S.2     1  UNL1       -0.0473
     18 C         134.8185  140.4921  155.8611 C.ar    1  UNL1        0.1122
     19 N         135.8405  140.4002  156.9552 N.ar    1  UNL1       -0.2339
     20 C         137.1895  140.6581  156.3524 C.ar    1  UNL1        0.1372
     21 H         141.6543  141.5529  154.1354 H       1  UNL1        0.1452
     22 H         140.6280  141.6926  152.7808 H       1  UNL1        0.1452
     23 C         133.3389  140.3025  156.0184 C.ar    1  UNL1        0.0239
     24 C         132.3909  141.3507  155.5160 C.ar    1  UNL1        0.0020
     25 C         130.9112  141.1611  155.6734 C.ar    1  UNL1        0.0001
     26 C         130.3796  139.9233  156.3332 C.ar    1  UNL1        0.0000
     27 C         131.3277  138.8751  156.8356 C.ar    1  UNL1        0.0001
     28 C         132.8073  139.0648  156.6782 C.ar    1  UNL1        0.0020
     29 C         139.4422  139.9651  168.2165 C.ar    1  UNL1        0.1388
     30 C         140.2837  140.9912  167.5173 C.ar    1  UNL1        0.0382
     31 C         140.0956  141.2426  166.0506 C.ar    1  UNL1        0.0178
     32 C         139.0658  140.4678  165.2829 C.ar    1  UNL1        0.0518
     33 C         138.2241  139.4417  165.9821 C.ar    1  UNL1        0.0178
     34 C         138.4124  139.1903  167.4489 C.ar    1  UNL1        0.0382
     35 C         140.3688  140.7107  170.5264 C.3     1  UNL1        0.2525
     36 O         139.6304  139.7137  169.6833 O.3     1  UNL1       -0.4714
@<TRIPOS>BOND
     1    35    36    1
     2    36    29    1
     3    29    30   ar
     4    30    31   ar
     5    31    32   ar
     6    32     1    1
     7     1     2   am
     8     2     3    2
     9     2     4   am
    10     4     5    1
    11     5     6    1
    12     6     7    1
    13     7    11    1
    14    11    12   ar
    15    12    13   ar
    16    13    14    1
    17    13    15   ar
    18    15    16   ar
    19    16    17   ar
    20    17    18   ar
    21    18    23    1
    22    23    24   ar
    23    24    25   ar
    24    25    26   ar
    25    26    27   ar
    26    27    28   ar
    27    18    19   ar
    28    19    20   ar
    29     7     8    1
    30     8     9    1
    31    32    33   ar
    32    33    34   ar
    33    34    29   ar
    34     9     4    1
    35    20    11   ar
    36    20    16   ar
    37    28    23   ar
    38     1    10    1
    39    14    21    1
    40    14    22    1
@<TRIPOS>MOLECULE
*****
 36 40 0 0 0
SMALL
GASTEIGER

@<TRIPOS>ATOM
      1 N         140.0386  139.4798  163.8536 N.am    1  UNL1       -0.2681
      2 C         141.2892  138.7723  163.4228 C.2     1  UNL1        0.3078
      3 O         142.2179  138.1976  164.4510 O.2     1  UNL1       -0.2522
      4 N         141.6112  138.6397  161.9638 N.am    1  UNL1       -0.2605
      5 C         142.8618  137.9322  161.5330 C.3     1  UNL1        0.1164
      6 C         143.1837  137.7996  160.0740 C.3     1  UNL1        0.1138
      7 N         142.2550  138.3744  159.0457 N.pl3   1  UNL1       -0.2884
      8 C         141.0044  139.0818  159.4765 C.3     1  UNL1        0.1138
      9 C         140.6825  139.2144  160.9356 C.3     1  UNL1        0.1164
     10 H         139.4291  139.8570  163.1788 H       1  UNL1        0.1564
     11 C         142.5770  138.2417  157.5867 C.ar    1  UNL1        0.1544
     12 N         142.5683  139.4540  156.7035 N.ar    1  UNL1       -0.1974
     13 C         142.8902  139.3214  155.2445 C.ar    1  UNL1        0.2154
     14 N         142.8815  140.5338  154.3613 N.pl3   1  UNL1       -0.3274
     15 N         143.2209  137.9763  154.6687 N.ar    1  UNL1       -0.2057
     16 C         143.2296  136.7640  155.5519 C.ar    1  UNL1        0.1353
     17 S         143.5155  135.3187  155.2698 S.2     1  UNL1       -0.0473
     18 C         143.3702  134.5582  156.5545 C.ar    1  UNL1        0.1122
     19 N         142.9945  135.5334  157.6306 N.ar    1  UNL1       -0.2339
     20 C         142.9077  136.8966  157.0109 C.ar    1  UNL1        0.1372
     21 H         142.6645  141.4166  154.7392 H       1  UNL1        0.1452
     22 H         143.0928  140.4467  153.4037 H       1  UNL1        0.1452
     23 C         143.5661  133.0817  156.7320 C.ar    1  UNL1        0.0239
     24 C         144.6907  132.5714  157.5834 C.ar    1  UNL1        0.0020
     25 C         144.8866  131.0948  157.7609 C.ar    1  UNL1        0.0001
     26 C         143.9579  130.1286  157.0870 C.ar    1  UNL1        0.0000
     27 C         142.8334  130.6389  156.2356 C.ar    1  UNL1        0.0001
     28 C         142.6375  132.1155  156.0581 C.ar    1  UNL1        0.0020
     29 C         139.0728  139.8778  168.2307 C.ar    1  UNL1        0.1388
     30 C         138.2196  139.0140  167.3499 C.ar    1  UNL1        0.0382
     31 C         138.5414  138.8813  165.8909 C.ar    1  UNL1        0.0178
     32 C         139.7167  139.6124  165.3126 C.ar    1  UNL1        0.0518
     33 C         140.5700  140.4763  166.1934 C.ar    1  UNL1        0.0178
     34 C         140.2480  140.6089  167.6525 C.ar    1  UNL1        0.0382
     35 C         139.8564  140.1793  170.6894 C.3     1  UNL1        0.2525
     36 O         138.7509  140.0104  169.6897 O.3     1  UNL1       -0.4714
@<TRIPOS>BOND
     1    35    36    1
     2    36    29    1
     3    29    30   ar
     4    30    31   ar
     5    31    32   ar
     6    32     1    1
     7     1     2   am
     8     2     3    2
     9     2     4   am
    10     4     5    1
    11     5     6    1
    12     6     7    1
    13     7    11    1
    14    11    12   ar
    15    12    13   ar
    16    13    14    1
    17    13    15   ar
    18    15    16   ar
    19    16    17   ar
    20    17    18   ar
    21    18    23    1
    22    23    24   ar
    23    24    25   ar
    24    25    26   ar
    25    26    27   ar
    26    27    28   ar
    27    18    19   ar
    28    19    20   ar
    29     7     8    1
    30     8     9    1
    31    32    33   ar
    32    33    34   ar
    33    34    29   ar
    34     9     4    1
    35    20    11   ar
    36    20    16   ar
    37    28    23   ar
    38     1    10    1
    39    14    21    1
    40    14    22    1
@<TRIPOS>MOLECULE
*****
 36 40 0 0 0
SMALL
GASTEIGER

@<TRIPOS>ATOM
      1 N         143.1533  139.8658  164.2858 N.am    1  UNL1       -0.2681
      2 C         141.9635  139.5019  163.4479 C.2     1  UNL1        0.3078
      3 O         140.6099  139.3761  164.0820 O.2     1  UNL1       -0.2522
      4 N         142.1272  139.2638  161.9761 N.am    1  UNL1       -0.2605
      5 C         140.9374  138.8999  161.1382 C.3     1  UNL1        0.1164
      6 C         141.1011  138.6619  159.6664 C.3     1  UNL1        0.1138
      7 N         142.4548  138.7876  159.0323 N.pl3   1  UNL1       -0.2884
      8 C         143.6446  139.1515  159.8701 C.3     1  UNL1        0.1138
      9 C         143.4808  139.3896  161.3420 C.3     1  UNL1        0.1164
     10 H         144.0417  139.9483  163.8697 H       1  UNL1        0.1564
     11 C         142.6185  138.5495  157.5603 C.ar    1  UNL1        0.1544
     12 N         142.4854  139.6912  156.5965 N.ar    1  UNL1       -0.1974
     13 C         142.6491  139.4531  155.1247 C.ar    1  UNL1        0.2154
     14 N         142.5160  140.5949  154.1609 N.pl3   1  UNL1       -0.3274
     15 N         142.9459  138.0733  154.6165 N.ar    1  UNL1       -0.2057
     16 C         143.0790  136.9317  155.5803 C.ar    1  UNL1        0.1353
     17 S         143.3657  135.4737  155.3756 S.2     1  UNL1       -0.0473
     18 C         143.3791  134.8106  156.7211 C.ar    1  UNL1        0.1122
     19 N         143.1008  135.8589  157.7573 N.ar    1  UNL1       -0.2339
     20 C         142.9153  137.1698  157.0522 C.ar    1  UNL1        0.1372
     21 H         142.3212  141.5004  154.4944 H       1  UNL1        0.1452
     22 H         142.6234  140.4386  153.1948 H       1  UNL1        0.1452
     23 C         143.6274  133.3549  156.9841 C.ar    1  UNL1        0.0239
     24 C         142.6716  132.3244  156.4600 C.ar    1  UNL1        0.0020
     25 C         142.9200  130.8686  156.7232 C.ar    1  UNL1        0.0001
     26 C         144.1239  130.4434  157.5104 C.ar    1  UNL1        0.0000
     27 C         145.0796  131.4739  158.0345 C.ar    1  UNL1        0.0001
     28 C         144.8313  132.9296  157.7713 C.ar    1  UNL1        0.0020
     29 C         142.6621  140.5800  168.7015 C.ar    1  UNL1        0.1388
     30 C         142.6917  141.7413  167.7526 C.ar    1  UNL1        0.0382
     31 C         142.8555  141.5033  166.2807 C.ar    1  UNL1        0.0178
     32 C         142.9896  140.1039  165.7576 C.ar    1  UNL1        0.0518
     33 C         142.9599  138.9424  166.7066 C.ar    1  UNL1        0.0178
     34 C         142.7961  139.1806  168.1785 C.ar    1  UNL1        0.0382
     35 C         141.9838  142.1378  170.6670 C.3     1  UNL1        0.2525
     36 O         142.4983  140.8181  170.1734 O.3     1  UNL1       -0.4714
@<TRIPOS>BOND
     1    35    36    1
     2    36    29    1
     3    29    30   ar
     4    30    31   ar
     5    31    32   ar
     6    32     1    1
     7     1     2   am
     8     2     3    2
     9     2     4   am
    10     4     5    1
    11     5     6    1
    12     6     7    1
    13     7    11    1
    14    11    12   ar
    15    12    13   ar
    16    13    14    1
    17    13    15   ar
    18    15    16   ar
    19    16    17   ar
    20    17    18   ar
    21    18    23    1
    22    23    24   ar
    23    24    25   ar
    24    25    26   ar
    25    26    27   ar
    26    27    28   ar
    27    18    19   ar
    28    19    20   ar
    29     7     8    1
    30     8     9    1
    31    32    33   ar
    32    33    34   ar
    33    34    29   ar
    34     9     4    1
    35    20    11   ar
    36    20    16   ar
    37    28    23   ar
    38     1    10    1
    39    14    21    1
    40    14    22    1
@<TRIPOS>MOLECULE
*****
 36 40 0 0 0
SMALL
GASTEIGER

@<TRIPOS>ATOM
      1 N         141.7182  135.8319  156.3858 N.am    1  UNL1       -0.2681
      2 C         142.7303  136.9112  156.6329 C.2     1  UNL1        0.3078
      3 O         144.0868  136.8267  155.9984 O.2     1  UNL1       -0.2522
      4 N         142.3858  138.0748  157.5144 N.am    1  UNL1       -0.2605
      5 C         143.3978  139.1541  157.7615 C.3     1  UNL1        0.1164
      6 C         143.0533  140.3177  158.6430 C.3     1  UNL1        0.1138
      7 N         141.6967  140.4022  159.2776 N.pl3   1  UNL1       -0.2884
      8 C         140.6846  139.3229  159.0306 C.3     1  UNL1        0.1138
      9 C         141.0292  138.1593  158.1490 C.3     1  UNL1        0.1164
     10 H         140.8279  135.8873  156.8023 H       1  UNL1        0.1564
     11 C         141.3522  141.5659  160.1592 C.ar    1  UNL1        0.1544
     12 N         141.6712  142.9629  159.7159 N.ar    1  UNL1       -0.1974
     13 C         141.3268  144.1265  160.5974 C.ar    1  UNL1        0.2154
     14 N         141.6458  145.5236  160.1540 N.pl3   1  UNL1       -0.3274
     15 N         140.6632  143.8932  161.9223 N.ar    1  UNL1       -0.2057
     16 C         140.3441  142.4962  162.3656 C.ar    1  UNL1        0.1353
     17 S         139.6981  141.9607  163.6089 S.2     1  UNL1       -0.0473
     18 C         139.6434  140.4659  163.4957 C.ar    1  UNL1        0.1122
     19 N         140.2555  140.0777  162.1825 N.ar    1  UNL1       -0.2339
     20 C         140.6886  141.3325  161.4840 C.ar    1  UNL1        0.1372
     21 H         142.0813  145.6768  159.2845 H       1  UNL1        0.1452
     22 H         141.4197  146.2874  160.7326 H       1  UNL1        0.1452
     23 C         139.0760  139.5246  164.5166 C.ar    1  UNL1        0.0239
     24 C         138.4537  140.0641  165.7702 C.ar    1  UNL1        0.0020
     25 C         137.8864  139.1227  166.7910 C.ar    1  UNL1        0.0001
     26 C         137.9414  137.6420  166.5582 C.ar    1  UNL1        0.0000
     27 C         138.5638  137.1025  165.3046 C.ar    1  UNL1        0.0001
     28 C         139.1311  138.0439  164.2838 C.ar    1  UNL1        0.0020
     29 C         142.7518  132.3409  153.7412 C.ar    1  UNL1        0.1388
     30 C         142.0310  133.5263  153.1709 C.ar    1  UNL1        0.0382
     31 C         141.6865  134.6900  154.0524 C.ar    1  UNL1        0.0178
     32 C         142.0627  134.6683  155.5043 C.ar    1  UNL1        0.0518
     33 C         142.7836  133.4828  156.0747 C.ar    1  UNL1        0.0178
     34 C         143.1281  132.3191  155.1931 C.ar    1  UNL1        0.0382
     35 C         144.0585  130.1315  153.3398 C.3     1  UNL1        0.2525
     36 O         143.0963  131.1772  152.8596 O.3     1  UNL1       -0.4714
@<TRIPOS>BOND
     1    35    36    1
     2    36    29    1
     3    29    30   ar
     4    30    31   ar
     5    31    32   ar
     6    32     1    1
     7     1     2   am
     8     2     3    2
     9     2     4   am
    10     4     5    1
    11     5     6    1
    12     6     7    1
    13     7    11    1
    14    11    12   ar
    15    12    13   ar
    16    13    14    1
    17    13    15   ar
    18    15    16   ar
    19    16    17   ar
    20    17    18   ar
    21    18    23    1
    22    23    24   ar
    23    24    25   ar
    24    25    26   ar
    25    26    27   ar
    26    27    28   ar
    27    18    19   ar
    28    19    20   ar
    29     7     8    1
    30     8     9    1
    31    32    33   ar
    32    33    34   ar
    33    34    29   ar
    34     9     4    1
    35    20    11   ar
    36    20    16   ar
    37    28    23   ar
    38     1    10    1
    39    14    21    1
    40    14    22    1
@<TRIPOS>MOLECULE
*****
 36 40 0 0 0
SMALL
GASTEIGER

@<TRIPOS>ATOM
      1 N         141.4530  139.7313  163.8827 N.am    1  UNL1       -0.2681
      2 C         141.3656  140.9271  162.9812 C.2     1  UNL1        0.3078
      3 O         140.5110  142.0974  163.3686 O.2     1  UNL1       -0.2522
      4 N         142.1328  140.9526  161.6926 N.am    1  UNL1       -0.2605
      5 C         142.0454  142.1485  160.7912 C.3     1  UNL1        0.1164
      6 C         142.8126  142.1740  159.5026 C.3     1  UNL1        0.1138
      7 N         143.6673  141.0037  159.1153 N.pl3   1  UNL1       -0.2884
      8 C         143.7548  139.8079  160.0166 C.3     1  UNL1        0.1138
      9 C         142.9875  139.7824  161.3053 C.3     1  UNL1        0.1164
     10 H         142.0139  138.9632  163.6284 H       1  UNL1        0.1564
     11 C         144.4346  141.0293  157.8266 C.ar    1  UNL1        0.1544
     12 N         145.3024  142.2065  157.4936 N.ar    1  UNL1       -0.1974
     13 C         146.0696  142.2321  156.2050 C.ar    1  UNL1        0.2154
     14 N         146.9376  143.4094  155.8721 N.pl3   1  UNL1       -0.3274
     15 N         145.9690  141.0804  155.2492 N.ar    1  UNL1       -0.2057
     16 C         145.1012  139.9031  155.5821 C.ar    1  UNL1        0.1353
     17 S         144.8065  138.6322  154.8419 S.2     1  UNL1       -0.0473
     18 C         143.8571  137.8212  155.6731 C.ar    1  UNL1        0.1122
     19 N         143.5651  138.5908  156.9270 N.ar    1  UNL1       -0.2339
     20 C         144.3339  139.8776  156.8708 C.ar    1  UNL1        0.1372
     21 H         147.0036  144.1653  156.4994 H       1  UNL1        0.1452
     22 H         147.4411  143.4262  155.0263 H       1  UNL1        0.1452
     23 C         143.2980  136.4766  155.3135 C.ar    1  UNL1        0.0239
     24 C         143.4578  135.3212  156.2567 C.ar    1  UNL1        0.0020
     25 C         142.8986  133.9766  155.8970 C.ar    1  UNL1        0.0001
     26 C         142.1796  133.7873  154.5943 C.ar    1  UNL1        0.0000
     27 C         142.0197  134.9427  153.6511 C.ar    1  UNL1        0.0001
     28 C         142.5790  136.2873  154.0108 C.ar    1  UNL1        0.0020
     29 C         139.1512  139.6547  167.7486 C.ar    1  UNL1        0.1388
     30 C         140.5301  140.2438  167.7082 C.ar    1  UNL1        0.0382
     31 C         141.2974  140.2694  166.4196 C.ar    1  UNL1        0.0178
     32 C         140.6858  139.7057  165.1713 C.ar    1  UNL1        0.0518
     33 C         139.3069  139.1165  165.2117 C.ar    1  UNL1        0.0178
     34 C         138.5396  139.0910  166.5003 C.ar    1  UNL1        0.0382
     35 C         138.8279  140.4782  170.1914 C.3     1  UNL1        0.2525
     36 O         138.3840  139.6291  169.0373 O.3     1  UNL1       -0.4714
@<TRIPOS>BOND
     1    35    36    1
     2    36    29    1
     3    29    30   ar
     4    30    31   ar
     5    31    32   ar
     6    32     1    1
     7     1     2   am
     8     2     3    2
     9     2     4   am
    10     4     5    1
    11     5     6    1
    12     6     7    1
    13     7    11    1
    14    11    12   ar
    15    12    13   ar
    16    13    14    1
    17    13    15   ar
    18    15    16   ar
    19    16    17   ar
    20    17    18   ar
    21    18    23    1
    22    23    24   ar
    23    24    25   ar
    24    25    26   ar
    25    26    27   ar
    26    27    28   ar
    27    18    19   ar
    28    19    20   ar
    29     7     8    1
    30     8     9    1
    31    32    33   ar
    32    33    34   ar
    33    34    29   ar
    34     9     4    1
    35    20    11   ar
    36    20    16   ar
    37    28    23   ar
    38     1    10    1
    39    14    21    1
    40    14    22    1
@<TRIPOS>MOLECULE
*****
 36 40 0 0 0
SMALL
GASTEIGER

@<TRIPOS>ATOM
      1 N         139.8274  140.5769  164.8329 N.am    1  UNL1       -0.2681
      2 C         140.8008  139.6324  164.1921 C.2     1  UNL1        0.3078
      3 O         141.7933  138.8906  165.0375 O.2     1  UNL1       -0.2522
      4 N         140.7818  139.4299  162.7060 N.am    1  UNL1       -0.2605
      5 C         141.7552  138.4855  162.0652 C.3     1  UNL1        0.1164
      6 C         141.7362  138.2829  160.5791 C.3     1  UNL1        0.1138
      7 N         140.7437  139.0248  159.7337 N.pl3   1  UNL1       -0.2884
      8 C         139.7702  139.9692  160.3744 C.3     1  UNL1        0.1138
      9 C         139.7893  140.1717  161.8606 C.3     1  UNL1        0.1164
     10 H         139.1760  141.0638  164.2781 H       1  UNL1        0.1564
     11 C         140.7246  138.8222  158.2476 C.ar    1  UNL1        0.1544
     12 N         139.5759  138.1044  157.6031 N.ar    1  UNL1       -0.1974
     13 C         139.5569  137.9019  156.1171 C.ar    1  UNL1        0.2154
     14 N         138.4081  137.1841  155.4726 N.pl3   1  UNL1       -0.3274
     15 N         140.6866  138.4170  155.2753 N.ar    1  UNL1       -0.2057
     16 C         141.8353  139.1347  155.9197 C.ar    1  UNL1        0.1353
     17 S         143.0804  139.7491  155.3521 S.2     1  UNL1       -0.0473
     18 C         143.8690  140.3314  156.4875 C.ar    1  UNL1        0.1122
     19 N         143.1112  140.0769  157.7568 N.ar    1  UNL1       -0.2339
     20 C         141.8543  139.3373  157.4059 C.ar    1  UNL1        0.1372
     21 H         137.6666  136.8460  156.0250 H       1  UNL1        0.1452
     22 H         138.3956  137.0511  154.4972 H       1  UNL1        0.1452
     23 C         145.1844  141.0432  156.3736 C.ar    1  UNL1        0.0239
     24 C         146.1136  140.7252  155.2398 C.ar    1  UNL1        0.0020
     25 C         147.4290  141.4371  155.1260 C.ar    1  UNL1        0.0001
     26 C         147.8153  142.4669  156.1459 C.ar    1  UNL1        0.0000
     27 C         146.8861  142.7849  157.2797 C.ar    1  UNL1        0.0001
     28 C         145.5707  142.0730  157.3935 C.ar    1  UNL1        0.0020
     29 C         139.8846  141.1846  169.2913 C.ar    1  UNL1        0.1388
     30 C         139.2098  139.9790  168.7072 C.ar    1  UNL1        0.0382
     31 C         139.1907  139.7763  167.2211 C.ar    1  UNL1        0.0178
     32 C         139.8464  140.7794  166.3189 C.ar    1  UNL1        0.0518
     33 C         140.5213  141.9851  166.9030 C.ar    1  UNL1        0.0178
     34 C         140.5403  142.1877  168.3891 C.ar    1  UNL1        0.0382
     35 C         141.1850  141.7473  171.4689 C.3     1  UNL1        0.2525
     36 O         139.9036  141.3871  170.7774 O.3     1  UNL1       -0.4714
@<TRIPOS>BOND
     1    35    36    1
     2    36    29    1
     3    29    30   ar
     4    30    31   ar
     5    31    32   ar
     6    32     1    1
     7     1     2   am
     8     2     3    2
     9     2     4   am
    10     4     5    1
    11     5     6    1
    12     6     7    1
    13     7    11    1
    14    11    12   ar
    15    12    13   ar
    16    13    14    1
    17    13    15   ar
    18    15    16   ar
    19    16    17   ar
    20    17    18   ar
    21    18    23    1
    22    23    24   ar
    23    24    25   ar
    24    25    26   ar
    25    26    27   ar
    26    27    28   ar
    27    18    19   ar
    28    19    20   ar
    29     7     8    1
    30     8     9    1
    31    32    33   ar
    32    33    34   ar
    33    34    29   ar
    34     9     4    1
    35    20    11   ar
    36    20    16   ar
    37    28    23   ar
    38     1    10    1
    39    14    21    1
    40    14    22    1
@<TRIPOS>MOLECULE
*****
 36 40 0 0 0
SMALL
GASTEIGER

@<TRIPOS>ATOM
      1 N         142.1026  136.4981  156.8577 N.am    1  UNL1       -0.2681
      2 C         142.9580  137.7230  156.7237 C.2     1  UNL1        0.3078
      3 O         144.3129  137.6255  156.0875 O.2     1  UNL1       -0.2522
      4 N         142.4586  139.0452  157.2258 N.am    1  UNL1       -0.2605
      5 C         143.3140  140.2701  157.0917 C.3     1  UNL1        0.1164
      6 C         142.8146  141.5923  157.5938 C.3     1  UNL1        0.1138
      7 N         141.4596  141.6898  158.2300 N.pl3   1  UNL1       -0.2884
      8 C         140.6042  140.4649  158.3641 C.3     1  UNL1        0.1138
      9 C         141.1037  139.1427  157.8620 C.3     1  UNL1        0.1164
     10 H         141.2133  136.5620  157.2753 H       1  UNL1        0.1564
     11 C         140.9601  143.0121  158.7321 C.ar    1  UNL1        0.1544
     12 N         140.7785  144.1561  157.7791 N.ar    1  UNL1       -0.1974
     13 C         140.2790  145.4783  158.2812 C.ar    1  UNL1        0.2154
     14 N         140.0974  146.6224  157.3282 N.pl3   1  UNL1       -0.3274
     15 N         139.9612  145.6566  159.7363 N.ar    1  UNL1       -0.2057
     16 C         140.1429  144.5126  160.6893 C.ar    1  UNL1        0.1353
     17 S         139.9138  144.3910  162.1667 S.2     1  UNL1       -0.0473
     18 C         140.2717  142.9935  162.5776 C.ar    1  UNL1        0.1122
     19 N         140.7219  142.2514  161.3543 N.ar    1  UNL1       -0.2339
     20 C         140.6424  143.1903  160.1872 C.ar    1  UNL1        0.1372
     21 H         140.3059  146.5054  156.3731 H       1  UNL1        0.1452
     22 H         139.7696  147.4903  157.6577 H       1  UNL1        0.1452
     23 C         140.1931  142.4359  163.9679 C.ar    1  UNL1        0.0239
     24 C         139.9058  140.9785  164.1764 C.ar    1  UNL1        0.0020
     25 C         139.8273  140.4209  165.5667 C.ar    1  UNL1        0.0001
     26 C         140.0360  141.3207  166.7486 C.ar    1  UNL1        0.0000
     27 C         140.3232  142.7781  166.5402 C.ar    1  UNL1        0.0001
     28 C         140.4018  143.3356  165.1498 C.ar    1  UNL1        0.0020
     29 C         143.6010  132.5313  155.3514 C.ar    1  UNL1        0.1388
     30 C         144.0820  133.0636  156.6687 C.ar    1  UNL1        0.0382
     31 C         143.5826  134.3858  157.1708 C.ar    1  UNL1        0.0178
     32 C         142.6020  135.1759  156.3557 C.ar    1  UNL1        0.0518
     33 C         142.1210  134.6435  155.0383 C.ar    1  UNL1        0.0178
     34 C         142.6205  133.3212  154.5362 C.ar    1  UNL1        0.0382
     35 C         144.7491  130.2435  155.7965 C.3     1  UNL1        0.2525
     36 O         144.1005  131.2090  154.8493 O.3     1  UNL1       -0.4714
@<TRIPOS>BOND
     1    35    36    1
     2    36    29    1
     3    29    30   ar
     4    30    31   ar
     5    31    32   ar
     6    32     1    1
     7     1     2   am
     8     2     3    2
     9     2     4   am
    10     4     5    1
    11     5     6    1
    12     6     7    1
    13     7    11    1
    14    11    12   ar
    15    12    13   ar
    16    13    14    1
    17    13    15   ar
    18    15    16   ar
    19    16    17   ar
    20    17    18   ar
    21    18    23    1
    22    23    24   ar
    23    24    25   ar
    24    25    26   ar
    25    26    27   ar
    26    27    28   ar
    27    18    19   ar
    28    19    20   ar
    29     7     8    1
    30     8     9    1
    31    32    33   ar
    32    33    34   ar
    33    34    29   ar
    34     9     4    1
    35    20    11   ar
    36    20    16   ar
    37    28    23   ar
    38     1    10    1
    39    14    21    1
    40    14    22    1
@<TRIPOS>MOLECULE
*****
 36 40 0 0 0
SMALL
GASTEIGER

@<TRIPOS>ATOM
      1 N         140.3237  139.4215  164.5024 N.am    1  UNL1       -0.2681
      2 C         140.7919  140.3700  163.4388 C.2     1  UNL1        0.3078
      3 O         141.6979  141.5105  163.7972 O.2     1  UNL1       -0.2522
      4 N         140.3542  140.1781  162.0171 N.am    1  UNL1       -0.2605
      5 C         140.8224  141.1266  160.9536 C.3     1  UNL1        0.1164
      6 C         140.3847  140.9347  159.5318 C.3     1  UNL1        0.1138
      7 N         139.4787  139.7941  159.1735 N.pl3   1  UNL1       -0.2884
      8 C         139.0104  138.8455  160.2370 C.3     1  UNL1        0.1138
      9 C         139.4482  139.0376  161.6588 C.3     1  UNL1        0.1164
     10 H         139.7291  138.6729  164.2673 H       1  UNL1        0.1564
     11 C         139.0409  139.6021  157.7517 C.ar    1  UNL1        0.1544
     12 N         138.0091  140.5129  157.1551 N.ar    1  UNL1       -0.1974
     13 C         137.5714  140.3210  155.7334 C.ar    1  UNL1        0.2154
     14 N         136.5395  141.2318  155.1369 N.pl3   1  UNL1       -0.3274
     15 N         138.1654  139.2182  154.9080 N.ar    1  UNL1       -0.2057
     16 C         139.1973  138.3075  155.5046 C.ar    1  UNL1        0.1353
     17 S         139.9547  137.1426  154.9396 S.2     1  UNL1       -0.0473
     18 C         140.8606  136.6146  156.0122 C.ar    1  UNL1        0.1122
     19 N         140.6630  137.4531  157.2401 N.ar    1  UNL1       -0.2339
     20 C         139.6350  138.4994  156.9264 C.ar    1  UNL1        0.1372
     21 H         136.1496  141.9556  155.6785 H       1  UNL1        0.1452
     22 H         136.2522  141.1058  154.2037 H       1  UNL1        0.1452
     23 C         141.7993  135.4521  155.8802 C.ar    1  UNL1        0.0239
     24 C         142.9351  135.2917  156.8467 C.ar    1  UNL1        0.0020
     25 C         143.8738  134.1291  156.7146 C.ar    1  UNL1        0.0001
     26 C         143.6767  133.1270  155.6160 C.ar    1  UNL1        0.0000
     27 C         142.5409  133.2875  154.6494 C.ar    1  UNL1        0.0001
     28 C         141.6022  134.4500  154.7815 C.ar    1  UNL1        0.0020
     29 C         141.6369  139.9974  168.7678 C.ar    1  UNL1        0.1388
     30 C         142.6010  139.4597  167.7523 C.ar    1  UNL1        0.0382
     31 C         142.1634  139.2677  166.3305 C.ar    1  UNL1        0.0178
     32 C         140.7614  139.6134  165.9241 C.ar    1  UNL1        0.0518
     33 C         139.7972  140.1512  166.9397 C.ar    1  UNL1        0.0178
     34 C         140.2350  140.3431  168.3615 C.ar    1  UNL1        0.0382
     35 C         141.1817  140.9054  171.1591 C.3     1  UNL1        0.2525
     36 O         142.0747  140.1894  170.1896 O.3     1  UNL1       -0.4714
@<TRIPOS>BOND
     1    35    36    1
     2    36    29    1
     3    29    30   ar
     4    30    31   ar
     5    31    32   ar
     6    32     1    1
     7     1     2   am
     8     2     3    2
     9     2     4   am
    10     4     5    1
    11     5     6    1
    12     6     7    1
    13     7    11    1
    14    11    12   ar
    15    12    13   ar
    16    13    14    1
    17    13    15   ar
    18    15    16   ar
    19    16    17   ar
    20    17    18   ar
    21    18    23    1
    22    23    24   ar
    23    24    25   ar
    24    25    26   ar
    25    26    27   ar
    26    27    28   ar
    27    18    19   ar
    28    19    20   ar
    29     7     8    1
    30     8     9    1
    31    32    33   ar
    32    33    34   ar
    33    34    29   ar
    34     9     4    1
    35    20    11   ar
    36    20    16   ar
    37    28    23   ar
    38     1    10    1
    39    14    21    1
    40    14    22    1
@<TRIPOS>MOLECULE
*****
 36 40 0 0 0
SMALL
GASTEIGER

@<TRIPOS>ATOM
      1 N         139.4917  140.8094  164.9823 N.am    1  UNL1       -0.2681
      2 C         140.4669  139.9861  164.1941 C.2     1  UNL1        0.3078
      3 O         141.6355  139.3452  164.8822 O.2     1  UNL1       -0.2522
      4 N         140.2734  139.8036  162.7179 N.am    1  UNL1       -0.2605
      5 C         141.2486  138.9802  161.9297 C.3     1  UNL1        0.1164
      6 C         141.0551  138.7978  160.4536 C.3     1  UNL1        0.1138
      7 N         139.8864  139.4387  159.7654 N.pl3   1  UNL1       -0.2884
      8 C         138.9112  140.2620  160.5535 C.3     1  UNL1        0.1138
      9 C         139.1048  140.4444  162.0298 C.3     1  UNL1        0.1164
     10 H         138.7247  141.2301  164.5306 H       1  UNL1        0.1564
     11 C         139.6929  139.2562  158.2892 C.ar    1  UNL1        0.1544
     12 N         139.6708  137.8767  157.7005 N.ar    1  UNL1       -0.1974
     13 C         139.4774  137.6942  156.2244 C.ar    1  UNL1        0.2154
     14 N         139.4553  136.3146  155.6357 N.pl3   1  UNL1       -0.3274
     15 N         139.3059  138.8912  155.3367 N.ar    1  UNL1       -0.2057
     16 C         139.3280  140.2707  155.9253 C.ar    1  UNL1        0.1353
     17 S         139.1862  141.6290  155.3050 S.2     1  UNL1       -0.0473
     18 C         139.2920  142.6509  156.3978 C.ar    1  UNL1        0.1122
     19 N         139.4992  141.9243  157.6936 N.ar    1  UNL1       -0.2339
     20 C         139.5215  140.4531  157.4016 C.ar    1  UNL1        0.1372
     21 H         139.5678  135.5290  156.2183 H       1  UNL1        0.1452
     22 H         139.3283  136.1948  154.6668 H       1  UNL1        0.1452
     23 C         139.2058  144.1385  156.2252 C.ar    1  UNL1        0.0239
     24 C         138.2674  144.7227  155.2113 C.ar    1  UNL1        0.0020
     25 C         138.1813  146.2103  155.0387 C.ar    1  UNL1        0.0001
     26 C         139.0334  147.1136  155.8801 C.ar    1  UNL1        0.0000
     27 C         139.9717  146.5294  156.8941 C.ar    1  UNL1        0.0001
     28 C         140.0579  145.0418  157.0666 C.ar    1  UNL1        0.0020
     29 C         140.0722  141.3569  169.4109 C.ar    1  UNL1        0.1388
     30 C         139.4266  140.1081  168.8878 C.ar    1  UNL1        0.0382
     31 C         139.2331  139.9255  167.4116 C.ar    1  UNL1        0.0178
     32 C         139.6852  140.9919  166.4584 C.ar    1  UNL1        0.0518
     33 C         140.3309  142.2408  166.9815 C.ar    1  UNL1        0.0178
     34 C         140.5243  142.4232  168.4578 C.ar    1  UNL1        0.0382
     35 C         141.6440  141.7403  171.4437 C.3     1  UNL1        0.2525
     36 O         140.2657  141.5393  170.8871 O.3     1  UNL1       -0.4714
@<TRIPOS>BOND
     1    35    36    1
     2    36    29    1
     3    29    30   ar
     4    30    31   ar
     5    31    32   ar
     6    32     1    1
     7     1     2   am
     8     2     3    2
     9     2     4   am
    10     4     5    1
    11     5     6    1
    12     6     7    1
    13     7    11    1
    14    11    12   ar
    15    12    13   ar
    16    13    14    1
    17    13    15   ar
    18    15    16   ar
    19    16    17   ar
    20    17    18   ar
    21    18    23    1
    22    23    24   ar
    23    24    25   ar
    24    25    26   ar
    25    26    27   ar
    26    27    28   ar
    27    18    19   ar
    28    19    20   ar
    29     7     8    1
    30     8     9    1
    31    32    33   ar
    32    33    34   ar
    33    34    29   ar
    34     9     4    1
    35    20    11   ar
    36    20    16   ar
    37    28    23   ar
    38     1    10    1
    39    14    21    1
    40    14    22    1
