@<TRIPOS>MOLECULE
*****
 38 41 0 0 0
SMALL
GASTEIGER

@<TRIPOS>ATOM
      1 C         141.8925  139.0152  158.5012 C.3     1  UNL1        0.0758
      2 C         142.6338  138.7181  159.7709 C.3     1  UNL1        0.0370
      3 C         143.3397  139.8208  160.5028 C.3     1  UNL1        0.0741
      4 N         143.3042  141.2206  159.9650 N.3     1  UNL1       -0.2688
      5 C         142.5629  141.5177  158.6953 C.3     1  UNL1        0.0741
      6 C         141.8570  140.4150  157.9634 C.3     1  UNL1        0.0370
      7 O         143.4337  137.1977  156.6787 O.2     1  UNL1       -0.2528
      8 C         141.9571  137.0037  156.8581 C.2     1  UNL1        0.3010
      9 N         141.1865  137.9124  157.7693 N.am    1  UNL1       -0.2905
     10 N         141.2512  135.9010  156.1261 N.am    1  UNL1       -0.2844
     11 H         140.2174  137.7851  157.8870 H       1  UNL1        0.1509
     12 H         140.2820  135.7737  156.2438 H       1  UNL1        0.1513
     13 CA        142.0218  134.9923  155.2149 C.3     1  UNL1        0.1248
     14 C         142.5135  133.6674  155.7175 C.ar    1  UNL1       -0.0020
     15 C         143.7604  133.5963  156.5484 C.ar    1  UNL1       -0.0026
     16 C         144.2522  132.2713  157.0510 C.ar    1  UNL1       -0.0003
     17 C         143.4971  131.0175  156.7228 C.ar    1  UNL1       -0.0000
     18 C         142.2503  131.0885  155.8919 C.ar    1  UNL1       -0.0003
     19 C         141.7585  132.4135  155.3893 C.ar    1  UNL1       -0.0026
     20 C         142.3006  135.4086  153.8010 C.3     1  UNL1        0.1612
     21 O         142.7668  136.8038  153.5080 O.3     1  UNL1       -0.3799
     22 H         142.0615  137.4329  153.7263 H       1  UNL1        0.2105
     23 C         144.0102  142.3233  160.6970 C.3     1  UNL1        0.1007
     24 C         144.0752  142.3073  162.1954 C.ar    1  UNL1        0.0129
     25 C         145.3148  142.1354  163.0224 C.ar    1  UNL1        0.0176
     26 C         144.9177  142.1823  164.4681 C.ar    1  UNL1        0.0799
     27 N         143.4326  142.3831  164.5347 N.ar    1  UNL1       -0.3038
     28 C         142.9120  142.4604  163.1301 C.ar    1  UNL1        0.0772
     29 C         142.6124  142.4882  165.7861 C.ar    1  UNL1        0.0640
     30 C         141.1499  142.8098  165.6995 C.ar    1  UNL1        0.0175
     31 C         140.3296  142.9149  166.9509 C.ar    1  UNL1        0.0053
     32 C         140.9718  142.6983  168.2890 C.ar    1  UNL1        0.0715
     33 C         142.4344  142.3767  168.3757 C.ar    1  UNL1        0.0053
     34 C         143.2546  142.2716  167.1243 C.ar    1  UNL1        0.0175
     35 C         140.1516  142.8034  169.5404 C.3     1  UNL1        0.4186
     36 F         139.3313  142.9084  170.7918 F       1  UNL1       -0.1659
     37 F         140.7093  144.1731  169.7910 F       1  UNL1       -0.1659
     38 F         139.5938  141.4336  169.2898 F       1  UNL1       -0.1659
@<TRIPOS>BOND
     1     7     8    2
     2     8     9   am
     3     9     1    1
     4     1     2    1
     5     2     3    1
     6     3     4    1
     7     4    23    1
     8    23    24    1
     9    24    25   ar
    10    25    26   ar
    11    26    27   ar
    12    27    29    1
    13    29    30   ar
    14    30    31   ar
    15    31    32   ar
    16    32    35    1
    17    35    36    1
    18    35    37    1
    19    35    38    1
    20    32    33   ar
    21    33    34   ar
    22    27    28   ar
    23     4     5    1
    24     5     6    1
    25     8    10   am
    26    10    13    1
    27    13    20    1
    28    20    21    1
    29    13    14    1
    30    14    15   ar
    31    15    16   ar
    32    16    17   ar
    33    17    18   ar
    34    18    19   ar
    35     6     1    1
    36    19    14   ar
    37    28    24   ar
    38    34    29   ar
    39     9    11    1
    40    10    12    1
    41    21    22    1
@<TRIPOS>MOLECULE
*****
 38 41 0 0 0
SMALL
GASTEIGER

@<TRIPOS>ATOM
      1 C         141.1226  144.4374  159.1518 C.3     1  UNL1        0.0758
      2 C         140.8999  145.1351  160.4608 C.3     1  UNL1        0.0370
      3 C         141.8226  144.8767  161.6149 C.3     1  UNL1        0.0741
      4 N         142.9680  143.9207  161.4599 N.3     1  UNL1       -0.2688
      5 C         143.1907  143.2229  160.1509 C.3     1  UNL1        0.0741
      6 C         142.2680  143.4813  158.9968 C.3     1  UNL1        0.0370
      7 O         141.9733  146.2667  156.9315 O.2     1  UNL1       -0.2528
      8 C         140.6253  145.6104  156.8875 C.2     1  UNL1        0.3010
      9 N         140.1999  144.6957  157.9977 N.am    1  UNL1       -0.2905
     10 N         139.7026  145.8687  155.7334 N.am    1  UNL1       -0.2844
     11 H         139.3151  144.2650  157.9688 H       1  UNL1        0.1509
     12 H         138.8178  145.4379  155.7046 H       1  UNL1        0.1513
     13 CA        140.1279  146.7833  154.6233 C.3     1  UNL1        0.1248
     14 C         139.7054  148.2225  154.6338 C.ar    1  UNL1       -0.0020
     15 C         138.8542  148.7461  155.7525 C.ar    1  UNL1       -0.0026
     16 C         138.4317  150.1853  155.7630 C.ar    1  UNL1       -0.0003
     17 C         138.8604  151.1010  154.6550 C.ar    1  UNL1       -0.0000
     18 C         139.7116  150.5775  153.5364 C.ar    1  UNL1       -0.0003
     19 C         140.1341  149.1382  153.5258 C.ar    1  UNL1       -0.0026
     20 C         140.9758  146.2588  153.5026 C.3     1  UNL1        0.1612
     21 O         140.3508  145.9321  152.1788 O.3     1  UNL1       -0.3799
     22 H         139.7413  145.1849  152.2846 H       1  UNL1        0.2105
     23 C         143.8907  143.6623  162.6140 C.3     1  UNL1        0.1007
     24 C         143.3787  142.9726  163.8437 C.ar    1  UNL1        0.0129
     25 C         144.0542  142.9410  165.1826 C.ar    1  UNL1        0.0176
     26 C         143.1944  142.1423  166.1168 C.ar    1  UNL1        0.0799
     27 N         141.9874  141.6802  165.3553 N.ar    1  UNL1       -0.3038
     28 C         142.1014  142.1934  163.9504 C.ar    1  UNL1        0.0772
     29 C         140.8639  140.8507  165.9025 C.ar    1  UNL1        0.0640
     30 C         140.6732  140.7311  167.3854 C.ar    1  UNL1        0.0175
     31 C         139.5496  139.9016  167.9327 C.ar    1  UNL1        0.0053
     32 C         138.6168  139.1916  166.9970 C.ar    1  UNL1        0.0715
     33 C         138.8075  139.3111  165.5139 C.ar    1  UNL1        0.0053
     34 C         139.9310  140.1407  164.9667 C.ar    1  UNL1        0.0175
     35 C         137.4933  138.3621  167.5442 C.3     1  UNL1        0.4186
     36 F         136.3697  137.5325  168.0915 F       1  UNL1       -0.1659
     37 F         137.5241  137.5074  166.3119 F       1  UNL1       -0.1659
     38 F         137.4624  139.2168  168.7765 F       1  UNL1       -0.1659
@<TRIPOS>BOND
     1     7     8    2
     2     8     9   am
     3     9     1    1
     4     1     2    1
     5     2     3    1
     6     3     4    1
     7     4    23    1
     8    23    24    1
     9    24    25   ar
    10    25    26   ar
    11    26    27   ar
    12    27    29    1
    13    29    30   ar
    14    30    31   ar
    15    31    32   ar
    16    32    35    1
    17    35    36    1
    18    35    37    1
    19    35    38    1
    20    32    33   ar
    21    33    34   ar
    22    27    28   ar
    23     4     5    1
    24     5     6    1
    25     8    10   am
    26    10    13    1
    27    13    20    1
    28    20    21    1
    29    13    14    1
    30    14    15   ar
    31    15    16   ar
    32    16    17   ar
    33    17    18   ar
    34    18    19   ar
    35     6     1    1
    36    19    14   ar
    37    28    24   ar
    38    34    29   ar
    39     9    11    1
    40    10    12    1
    41    21    22    1
@<TRIPOS>MOLECULE
*****
 38 41 0 0 0
SMALL
GASTEIGER

@<TRIPOS>ATOM
      1 C         139.1665  140.1610  161.4328 C.3     1  UNL1        0.0758
      2 C         138.8108  139.0077  160.5422 C.3     1  UNL1        0.0370
      3 C         139.5799  138.7727  159.2761 C.3     1  UNL1        0.0741
      4 N         140.7049  139.6911  158.9006 N.3     1  UNL1       -0.2688
      5 C         141.0607  140.8444  159.7911 C.3     1  UNL1        0.0741
      6 C         140.2915  141.0794  161.0572 C.3     1  UNL1        0.0370
      7 O         139.8596  138.6266  163.9158 O.2     1  UNL1       -0.2528
      8 C         138.7439  139.6289  163.9404 C.2     1  UNL1        0.3010
      9 N         138.3973  140.3961  162.6990 N.am    1  UNL1       -0.2905
     10 N         137.9747  139.8639  165.2066 N.am    1  UNL1       -0.2844
     11 H         137.6651  141.0539  162.7152 H       1  UNL1        0.1509
     12 H         137.2424  140.5217  165.2228 H       1  UNL1        0.1513
     13 CA        138.3212  139.0967  166.4481 C.3     1  UNL1        0.1248
     14 C         139.2376  139.6997  167.4711 C.ar    1  UNL1       -0.0020
     15 C         140.6369  140.0838  167.0909 C.ar    1  UNL1       -0.0026
     16 C         141.5533  140.6869  168.1139 C.ar    1  UNL1       -0.0003
     17 C         141.0704  140.9058  169.5171 C.ar    1  UNL1       -0.0000
     18 C         139.6712  140.5217  169.8973 C.ar    1  UNL1       -0.0003
     19 C         138.7547  139.9187  168.8742 C.ar    1  UNL1       -0.0026
     20 C         137.7514  137.7265  166.6665 C.3     1  UNL1        0.1612
     21 O         136.6121  137.5317  167.6225 O.3     1  UNL1       -0.3799
     22 H         136.9093  137.7295  168.5244 H       1  UNL1        0.2105
     23 C         141.4741  139.4560  157.6344 C.3     1  UNL1        0.1007
     24 C         141.4622  138.1015  156.9901 C.ar    1  UNL1        0.0129
     25 C         140.5665  137.6666  155.8683 C.ar    1  UNL1        0.0176
     26 C         140.8947  136.2404  155.5394 C.ar    1  UNL1        0.0799
     27 N         141.9934  135.7938  156.4579 N.ar    1  UNL1       -0.3038
     28 C         142.3441  136.9441  157.3544 C.ar    1  UNL1        0.0772
     29 C         142.6295  134.4356  156.4765 C.ar    1  UNL1        0.0640
     30 C         142.1766  133.3819  155.5098 C.ar    1  UNL1        0.0175
     31 C         142.8128  132.0237  155.5284 C.ar    1  UNL1        0.0053
     32 C         143.9018  131.7190  156.5137 C.ar    1  UNL1        0.0715
     33 C         144.3548  132.7727  157.4805 C.ar    1  UNL1        0.0053
     34 C         143.7187  134.1309  157.4619 C.ar    1  UNL1        0.0175
     35 C         144.5380  130.3608  156.5323 C.3     1  UNL1        0.4186
     36 F         145.1742  129.0025  156.5509 F       1  UNL1       -0.1659
     37 F         144.1066  130.1782  157.9573 F       1  UNL1       -0.1659
     38 F         144.9695  130.5433  155.1073 F       1  UNL1       -0.1659
@<TRIPOS>BOND
     1     7     8    2
     2     8     9   am
     3     9     1    1
     4     1     2    1
     5     2     3    1
     6     3     4    1
     7     4    23    1
     8    23    24    1
     9    24    25   ar
    10    25    26   ar
    11    26    27   ar
    12    27    29    1
    13    29    30   ar
    14    30    31   ar
    15    31    32   ar
    16    32    35    1
    17    35    36    1
    18    35    37    1
    19    35    38    1
    20    32    33   ar
    21    33    34   ar
    22    27    28   ar
    23     4     5    1
    24     5     6    1
    25     8    10   am
    26    10    13    1
    27    13    20    1
    28    20    21    1
    29    13    14    1
    30    14    15   ar
    31    15    16   ar
    32    16    17   ar
    33    17    18   ar
    34    18    19   ar
    35     6     1    1
    36    19    14   ar
    37    28    24   ar
    38    34    29   ar
    39     9    11    1
    40    10    12    1
    41    21    22    1
@<TRIPOS>MOLECULE
*****
 38 41 0 0 0
SMALL
GASTEIGER

@<TRIPOS>ATOM
      1 C         138.6873  142.6574  158.1327 C.3     1  UNL1        0.0758
      2 C         140.0858  142.8087  157.6119 C.3     1  UNL1        0.0370
      3 C         141.2521  142.6772  158.5459 C.3     1  UNL1        0.0741
      4 N         141.0199  142.3944  160.0006 N.3     1  UNL1       -0.2688
      5 C         139.6214  142.2431  160.5213 C.3     1  UNL1        0.0741
      6 C         138.4551  142.3746  159.5873 C.3     1  UNL1        0.0370
      7 O         137.2397  140.2061  157.1862 O.2     1  UNL1       -0.2528
      8 C         136.7971  141.5633  156.7255 C.2     1  UNL1        0.3010
      9 N         137.5209  142.7889  157.1987 N.am    1  UNL1       -0.2905
     10 N         135.6307  141.6948  155.7915 N.am    1  UNL1       -0.2844
     11 H         137.2304  143.6796  156.8963 H       1  UNL1        0.1509
     12 H         135.3402  142.5855  155.4891 H       1  UNL1        0.1513
     13 CA        134.9069  140.4691  155.3183 C.3     1  UNL1        0.1248
     14 C         133.5218  140.1776  155.8147 C.ar    1  UNL1       -0.0020
     15 C         133.2457  138.9086  156.5654 C.ar    1  UNL1       -0.0026
     16 C         131.8607  138.6171  157.0619 C.ar    1  UNL1       -0.0003
     17 C         130.7516  139.5945  156.8076 C.ar    1  UNL1       -0.0000
     18 C         131.0276  140.8634  156.0570 C.ar    1  UNL1       -0.0003
     19 C         132.4127  141.1550  155.5605 C.ar    1  UNL1       -0.0026
     20 C         135.5682  139.5351  154.3486 C.3     1  UNL1        0.1612
     21 O         136.4540  138.4345  154.8527 O.3     1  UNL1       -0.3799
     22 H         137.2407  138.8184  155.2706 H       1  UNL1        0.2105
     23 C         142.1863  142.2629  160.9346 C.3     1  UNL1        0.1007
     24 C         142.0193  142.5764  162.3919 C.ar    1  UNL1        0.0129
     25 C         142.2748  143.9032  163.0432 C.ar    1  UNL1        0.0176
     26 C         141.9808  143.7650  164.5076 C.ar    1  UNL1        0.0799
     27 N         141.5436  142.3527  164.7614 N.ar    1  UNL1       -0.3038
     28 C         141.5674  141.6181  163.4538 C.ar    1  UNL1        0.0772
     29 C         141.1515  141.7762  166.0895 C.ar    1  UNL1        0.0640
     30 C         141.9373  142.1231  167.3191 C.ar    1  UNL1        0.0175
     31 C         141.5452  141.5467  168.6472 C.ar    1  UNL1        0.0053
     32 C         140.3673  140.6233  168.7457 C.ar    1  UNL1        0.0715
     33 C         139.5814  140.2763  167.5161 C.ar    1  UNL1        0.0053
     34 C         139.9736  140.8528  166.1880 C.ar    1  UNL1        0.0175
     35 C         139.9752  140.0468  170.0738 C.3     1  UNL1        0.4186
     36 F         139.5832  139.4703  171.4020 F       1  UNL1       -0.1659
     37 F         138.6746  140.7916  170.0131 F       1  UNL1       -0.1659
     38 F         141.2759  139.3020  170.1346 F       1  UNL1       -0.1659
@<TRIPOS>BOND
     1     7     8    2
     2     8     9   am
     3     9     1    1
     4     1     2    1
     5     2     3    1
     6     3     4    1
     7     4    23    1
     8    23    24    1
     9    24    25   ar
    10    25    26   ar
    11    26    27   ar
    12    27    29    1
    13    29    30   ar
    14    30    31   ar
    15    31    32   ar
    16    32    35    1
    17    35    36    1
    18    35    37    1
    19    35    38    1
    20    32    33   ar
    21    33    34   ar
    22    27    28   ar
    23     4     5    1
    24     5     6    1
    25     8    10   am
    26    10    13    1
    27    13    20    1
    28    20    21    1
    29    13    14    1
    30    14    15   ar
    31    15    16   ar
    32    16    17   ar
    33    17    18   ar
    34    18    19   ar
    35     6     1    1
    36    19    14   ar
    37    28    24   ar
    38    34    29   ar
    39     9    11    1
    40    10    12    1
    41    21    22    1
@<TRIPOS>MOLECULE
*****
 38 41 0 0 0
SMALL
GASTEIGER

@<TRIPOS>ATOM
      1 C         139.8544  139.4020  157.9526 C.3     1  UNL1        0.0758
      2 C         141.1193  140.1388  157.6252 C.3     1  UNL1        0.0370
      3 C         142.1763  140.3170  158.6744 C.3     1  UNL1        0.0741
      4 N         141.9685  139.7584  160.0509 N.3     1  UNL1       -0.2688
      5 C         140.7037  139.0216  160.3783 C.3     1  UNL1        0.0741
      6 C         139.6466  138.8434  159.3291 C.3     1  UNL1        0.0370
      7 O         137.6540  141.4230  157.6816 O.2     1  UNL1       -0.2528
      8 C         137.6971  140.2342  156.7679 C.2     1  UNL1        0.3010
      9 N         138.7973  139.2237  156.9033 N.am    1  UNL1       -0.2905
     10 N         136.6400  140.0560  155.7187 N.am    1  UNL1       -0.2844
     11 H         138.8256  138.4435  156.3036 H       1  UNL1        0.1509
     12 H         136.6683  139.2757  155.1190 H       1  UNL1        0.1513
     13 CA        135.5398  141.0665  155.5832 C.3     1  UNL1        0.1248
     14 C         134.1436  140.7161  156.0047 C.ar    1  UNL1       -0.0020
     15 C         132.9711  141.3543  155.3205 C.ar    1  UNL1       -0.0026
     16 C         131.5748  141.0039  155.7420 C.ar    1  UNL1       -0.0003
     17 C         131.3510  140.0152  156.8476 C.ar    1  UNL1       -0.0000
     18 C         132.5234  139.3769  157.5317 C.ar    1  UNL1       -0.0003
     19 C         133.9197  139.7274  157.1103 C.ar    1  UNL1       -0.0026
     20 C         135.8358  142.4275  155.0263 C.3     1  UNL1        0.1612
     21 O         136.2352  143.5434  155.9456 O.3     1  UNL1       -0.3799
     22 H         135.4915  143.7645  156.5278 H       1  UNL1        0.2105
     23 C         143.0257  139.9367  161.1001 C.3     1  UNL1        0.1007
     24 C         142.7020  139.6801  162.5421 C.ar    1  UNL1        0.0129
     25 C         142.8548  138.3724  163.2608 C.ar    1  UNL1        0.0176
     26 C         142.4159  138.5702  164.6815 C.ar    1  UNL1        0.0799
     27 N         141.9918  140.0003  164.8408 N.ar    1  UNL1       -0.3038
     28 C         142.1687  140.6861  163.5186 C.ar    1  UNL1        0.0772
     29 C         141.4807  140.6332  166.1010 C.ar    1  UNL1        0.0640
     30 C         142.1466  141.8613  166.6470 C.ar    1  UNL1        0.0175
     31 C         141.6355  142.4942  167.9072 C.ar    1  UNL1        0.0053
     32 C         140.4585  141.8990  168.6214 C.ar    1  UNL1        0.0715
     33 C         139.7926  140.6708  168.0755 C.ar    1  UNL1        0.0053
     34 C         140.3037  140.0379  166.8153 C.ar    1  UNL1        0.0175
     35 C         139.9474  142.5319  169.8816 C.3     1  UNL1        0.4186
     36 F         139.4363  143.1648  171.1419 F       1  UNL1       -0.1659
     37 F         140.7086  143.7841  169.5615 F       1  UNL1       -0.1659
     38 F         139.1861  141.2797  170.2018 F       1  UNL1       -0.1659
@<TRIPOS>BOND
     1     7     8    2
     2     8     9   am
     3     9     1    1
     4     1     2    1
     5     2     3    1
     6     3     4    1
     7     4    23    1
     8    23    24    1
     9    24    25   ar
    10    25    26   ar
    11    26    27   ar
    12    27    29    1
    13    29    30   ar
    14    30    31   ar
    15    31    32   ar
    16    32    35    1
    17    35    36    1
    18    35    37    1
    19    35    38    1
    20    32    33   ar
    21    33    34   ar
    22    27    28   ar
    23     4     5    1
    24     5     6    1
    25     8    10   am
    26    10    13    1
    27    13    20    1
    28    20    21    1
    29    13    14    1
    30    14    15   ar
    31    15    16   ar
    32    16    17   ar
    33    17    18   ar
    34    18    19   ar
    35     6     1    1
    36    19    14   ar
    37    28    24   ar
    38    34    29   ar
    39     9    11    1
    40    10    12    1
    41    21    22    1
@<TRIPOS>MOLECULE
*****
 38 41 0 0 0
SMALL
GASTEIGER

@<TRIPOS>ATOM
      1 C         139.5216  138.7844  157.9849 C.3     1  UNL1        0.0758
      2 C         139.2057  140.1362  157.4166 C.3     1  UNL1        0.0370
      3 C         139.3013  141.3557  158.2847 C.3     1  UNL1        0.0741
      4 N         139.7127  141.2234  159.7211 N.3     1  UNL1       -0.2688
      5 C         140.0285  139.8717  160.2894 C.3     1  UNL1        0.0741
      6 C         139.9330  138.6522  159.4213 C.3     1  UNL1        0.0370
      7 O         142.0087  137.5630  156.8349 O.2     1  UNL1       -0.2528
      8 C         140.6695  136.9542  156.5419 C.2     1  UNL1        0.3010
      9 N         139.4260  137.5648  157.1168 N.am    1  UNL1       -0.2905
     10 N         140.5739  135.7346  155.6738 N.am    1  UNL1       -0.2844
     11 H         138.5470  137.1652  156.9244 H       1  UNL1        0.1509
     12 H         139.6950  135.3350  155.4814 H       1  UNL1        0.1513
     13 CA        141.8175  135.1239  155.0988 C.3     1  UNL1        0.1248
     14 C         142.4646  133.9561  155.7824 C.ar    1  UNL1       -0.0020
     15 C         143.6420  134.1741  156.6860 C.ar    1  UNL1       -0.0026
     16 C         144.2891  133.0063  157.3696 C.ar    1  UNL1       -0.0003
     17 C         143.7590  131.6204  157.1496 C.ar    1  UNL1       -0.0000
     18 C         142.5818  131.4024  156.2460 C.ar    1  UNL1       -0.0003
     19 C         141.9346  132.5702  155.5623 C.ar    1  UNL1       -0.0026
     20 C         142.4139  135.6811  153.8403 C.3     1  UNL1        0.1612
     21 O         143.0381  137.0450  153.8460 O.3     1  UNL1       -0.3799
     22 H         142.3543  137.7128  154.0110 H       1  UNL1        0.2105
     23 C         139.8083  142.4430  160.5892 C.3     1  UNL1        0.1007
     24 C         139.3055  142.3995  162.0017 C.ar    1  UNL1        0.0129
     25 C         137.9101  142.7174  162.4510 C.ar    1  UNL1        0.0176
     26 C         137.8519  142.5448  163.9399 C.ar    1  UNL1        0.0799
     27 N         139.2114  142.1202  164.4108 N.ar    1  UNL1       -0.3038
     28 C         140.1097  142.0305  163.2129 C.ar    1  UNL1        0.0772
     29 C         139.6036  141.8355  165.8304 C.ar    1  UNL1        0.0640
     30 C         139.3647  140.4755  166.4161 C.ar    1  UNL1        0.0175
     31 C         139.7569  140.1907  167.8356 C.ar    1  UNL1        0.0053
     32 C         140.3880  141.2660  168.6694 C.ar    1  UNL1        0.0715
     33 C         140.6269  142.6261  168.0837 C.ar    1  UNL1        0.0053
     34 C         140.2347  142.9109  166.6642 C.ar    1  UNL1        0.0175
     35 C         140.7802  140.9813  170.0889 C.3     1  UNL1        0.4186
     36 F         141.1723  140.6965  171.5085 F       1  UNL1       -0.1659
     37 F         142.0657  141.7263  169.8832 F       1  UNL1       -0.1659
     38 F         139.4946  140.2362  170.2947 F       1  UNL1       -0.1659
@<TRIPOS>BOND
     1     7     8    2
     2     8     9   am
     3     9     1    1
     4     1     2    1
     5     2     3    1
     6     3     4    1
     7     4    23    1
     8    23    24    1
     9    24    25   ar
    10    25    26   ar
    11    26    27   ar
    12    27    29    1
    13    29    30   ar
    14    30    31   ar
    15    31    32   ar
    16    32    35    1
    17    35    36    1
    18    35    37    1
    19    35    38    1
    20    32    33   ar
    21    33    34   ar
    22    27    28   ar
    23     4     5    1
    24     5     6    1
    25     8    10   am
    26    10    13    1
    27    13    20    1
    28    20    21    1
    29    13    14    1
    30    14    15   ar
    31    15    16   ar
    32    16    17   ar
    33    17    18   ar
    34    18    19   ar
    35     6     1    1
    36    19    14   ar
    37    28    24   ar
    38    34    29   ar
    39     9    11    1
    40    10    12    1
    41    21    22    1
@<TRIPOS>MOLECULE
*****
 38 41 0 0 0
SMALL
GASTEIGER

@<TRIPOS>ATOM
      1 C         138.7177  142.0735  158.1349 C.3     1  UNL1        0.0758
      2 C         138.5109  141.6361  159.5547 C.3     1  UNL1        0.0370
      3 C         139.6664  141.1093  160.3529 C.3     1  UNL1        0.0741
      4 N         141.0286  141.0198  159.7313 N.3     1  UNL1       -0.2688
      5 C         141.2354  141.4572  158.3115 C.3     1  UNL1        0.0741
      6 C         140.0799  141.9841  157.5133 C.3     1  UNL1        0.0370
      7 O         137.0247  140.1918  156.5246 O.2     1  UNL1       -0.2528
      8 C         136.7157  141.6596  156.5314 C.2     1  UNL1        0.3010
      9 N         137.5622  142.6005  157.3366 N.am    1  UNL1       -0.2905
     10 N         135.5602  142.1865  155.7331 N.am    1  UNL1       -0.2844
     11 H         137.3593  143.5638  157.3410 H       1  UNL1        0.1509
     12 H         135.3574  143.1498  155.7376 H       1  UNL1        0.1513
     13 CA        134.7138  141.2456  154.9280 C.3     1  UNL1        0.1248
     14 C         133.5275  140.5781  155.5581 C.ar    1  UNL1       -0.0020
     15 C         132.2016  141.2789  155.5898 C.ar    1  UNL1       -0.0026
     16 C         131.0153  140.6114  156.2199 C.ar    1  UNL1       -0.0003
     17 C         131.1548  139.2430  156.8183 C.ar    1  UNL1       -0.0000
     18 C         132.4806  138.5422  156.7866 C.ar    1  UNL1       -0.0003
     19 C         133.6670  139.2097  156.1565 C.ar    1  UNL1       -0.0026
     20 C         135.0536  140.9722  153.4929 C.3     1  UNL1        0.1612
     21 O         134.1958  141.5350  152.3986 O.3     1  UNL1       -0.3799
     22 H         133.3154  141.1295  152.4370 H       1  UNL1        0.2105
     23 C         142.1842  140.4929  160.5296 C.3     1  UNL1        0.1007
     24 C         141.9368  139.7758  161.8236 C.ar    1  UNL1        0.0129
     25 C         141.8469  138.2895  162.0047 C.ar    1  UNL1        0.0176
     26 C         141.5904  138.0141  163.4568 C.ar    1  UNL1        0.0799
     27 N         141.5218  139.3303  164.1731 N.ar    1  UNL1       -0.3038
     28 C         141.7359  140.4190  163.1637 C.ar    1  UNL1        0.0772
     29 C         141.2814  139.5237  165.6410 C.ar    1  UNL1        0.0640
     30 C         142.4203  139.4039  166.6097 C.ar    1  UNL1        0.0175
     31 C         142.1798  139.5973  168.0776 C.ar    1  UNL1        0.0053
     32 C         140.8005  139.9105  168.5768 C.ar    1  UNL1        0.0715
     33 C         139.6616  140.0304  167.6081 C.ar    1  UNL1        0.0053
     34 C         139.9020  139.8370  166.1402 C.ar    1  UNL1        0.0175
     35 C         140.5601  140.1040  170.0447 C.3     1  UNL1        0.4186
     36 F         140.3197  140.2973  171.5127 F       1  UNL1       -0.1659
     37 F         139.2476  140.7644  169.7427 F       1  UNL1       -0.1659
     38 F         141.8726  139.4435  170.3468 F       1  UNL1       -0.1659
@<TRIPOS>BOND
     1     7     8    2
     2     8     9   am
     3     9     1    1
     4     1     2    1
     5     2     3    1
     6     3     4    1
     7     4    23    1
     8    23    24    1
     9    24    25   ar
    10    25    26   ar
    11    26    27   ar
    12    27    29    1
    13    29    30   ar
    14    30    31   ar
    15    31    32   ar
    16    32    35    1
    17    35    36    1
    18    35    37    1
    19    35    38    1
    20    32    33   ar
    21    33    34   ar
    22    27    28   ar
    23     4     5    1
    24     5     6    1
    25     8    10   am
    26    10    13    1
    27    13    20    1
    28    20    21    1
    29    13    14    1
    30    14    15   ar
    31    15    16   ar
    32    16    17   ar
    33    17    18   ar
    34    18    19   ar
    35     6     1    1
    36    19    14   ar
    37    28    24   ar
    38    34    29   ar
    39     9    11    1
    40    10    12    1
    41    21    22    1
@<TRIPOS>MOLECULE
*****
 38 41 0 0 0
SMALL
GASTEIGER

@<TRIPOS>ATOM
      1 C         142.6589  140.0034  159.3173 C.3     1  UNL1        0.0758
      2 C         142.1530  138.5914  159.3171 C.3     1  UNL1        0.0370
      3 C         142.4141  137.7014  158.1382 C.3     1  UNL1        0.0741
      4 N         143.1812  138.2235  156.9597 N.3     1  UNL1       -0.2688
      5 C         143.6871  139.6356  156.9600 C.3     1  UNL1        0.0741
      6 C         143.4260  140.5256  158.1388 C.3     1  UNL1        0.0370
      7 O         144.4588  139.8847  161.7145 O.2     1  UNL1       -0.2528
      8 C         143.2977  140.8341  161.6947 C.2     1  UNL1        0.3010
      9 N         142.3977  140.8935  160.4962 N.am    1  UNL1       -0.2905
     10 N         143.0365  141.7242  162.8736 N.am    1  UNL1       -0.2844
     11 H         141.6356  141.5166  160.4833 H       1  UNL1        0.1509
     12 H         142.2745  142.3473  162.8607 H       1  UNL1        0.1513
     13 CA        143.9365  141.6648  164.0721 C.3     1  UNL1        0.1248
     14 C         143.5109  140.9038  165.2926 C.ar    1  UNL1       -0.0020
     15 C         143.6638  139.4122  165.3378 C.ar    1  UNL1       -0.0026
     16 C         143.2382  138.6512  166.5583 C.ar    1  UNL1       -0.0003
     17 C         142.6596  139.3817  167.7337 C.ar    1  UNL1       -0.0000
     18 C         142.5066  140.8732  167.6886 C.ar    1  UNL1       -0.0003
     19 C         142.9322  141.6343  166.4681 C.ar    1  UNL1       -0.0026
     20 C         145.2621  142.3664  164.0502 C.3     1  UNL1        0.1612
     21 O         146.3878  141.8172  163.2249 O.3     1  UNL1       -0.3799
     22 H         146.6640  140.9597  163.5846 H       1  UNL1        0.2105
     23 C         143.4423  137.3335  155.7808 C.3     1  UNL1        0.1007
     24 C         143.0192  135.8949  155.8189 C.ar    1  UNL1        0.0129
     25 C         141.7526  135.3330  155.2446 C.ar    1  UNL1        0.0176
     26 C         141.7390  133.8565  155.5087 C.ar    1  UNL1        0.0799
     27 N         142.9973  133.5058  156.2462 N.ar    1  UNL1       -0.3038
     28 C         143.7885  134.7657  156.4378 C.ar    1  UNL1        0.0772
     29 C         143.3946  132.1360  156.7104 C.ar    1  UNL1        0.0640
     30 C         144.5455  131.9696  157.6578 C.ar    1  UNL1        0.0175
     31 C         144.9427  130.5997  158.1221 C.ar    1  UNL1        0.0053
     32 C         144.1891  129.3962  157.6389 C.ar    1  UNL1        0.0715
     33 C         143.0382  129.5625  156.6914 C.ar    1  UNL1        0.0053
     34 C         142.6409  130.9324  156.2272 C.ar    1  UNL1        0.0175
     35 C         144.5864  128.0263  158.1031 C.3     1  UNL1        0.4186
     36 F         144.9838  126.6564  158.5674 F       1  UNL1       -0.1659
     37 F         143.4747  127.4291  157.2923 F       1  UNL1       -0.1659
     38 F         145.6982  128.6235  158.9140 F       1  UNL1       -0.1659
@<TRIPOS>BOND
     1     7     8    2
     2     8     9   am
     3     9     1    1
     4     1     2    1
     5     2     3    1
     6     3     4    1
     7     4    23    1
     8    23    24    1
     9    24    25   ar
    10    25    26   ar
    11    26    27   ar
    12    27    29    1
    13    29    30   ar
    14    30    31   ar
    15    31    32   ar
    16    32    35    1
    17    35    36    1
    18    35    37    1
    19    35    38    1
    20    32    33   ar
    21    33    34   ar
    22    27    28   ar
    23     4     5    1
    24     5     6    1
    25     8    10   am
    26    10    13    1
    27    13    20    1
    28    20    21    1
    29    13    14    1
    30    14    15   ar
    31    15    16   ar
    32    16    17   ar
    33    17    18   ar
    34    18    19   ar
    35     6     1    1
    36    19    14   ar
    37    28    24   ar
    38    34    29   ar
    39     9    11    1
    40    10    12    1
    41    21    22    1
@<TRIPOS>MOLECULE
*****
 38 41 0 0 0
SMALL
GASTEIGER

@<TRIPOS>ATOM
      1 C         143.4777  140.1852  158.1768 C.3     1  UNL1        0.0758
      2 C         143.7402  139.8816  159.6221 C.3     1  UNL1        0.0370
      3 C         143.4823  140.9267  160.6667 C.3     1  UNL1        0.0741
      4 N         142.9620  142.2753  160.2661 N.3     1  UNL1       -0.2688
      5 C         142.6995  142.5789  158.8208 C.3     1  UNL1        0.0741
      6 C         142.9574  141.5338  157.7762 C.3     1  UNL1        0.0370
      7 O         141.6101  137.8546  157.8933 O.2     1  UNL1       -0.2528
      8 C         142.8018  137.9749  156.9903 C.2     1  UNL1        0.3010
      9 N         143.7356  139.1402  157.1320 N.am    1  UNL1       -0.2905
     10 N         143.0597  136.9299  155.9455 N.am    1  UNL1       -0.2844
     11 H         144.5178  139.2191  156.5394 H       1  UNL1        0.1509
     12 H         143.8418  137.0088  155.3529 H       1  UNL1        0.1513
     13 CA        142.1258  135.7646  155.8038 C.3     1  UNL1        0.1248
     14 C         142.5754  134.3904  156.2030 C.ar    1  UNL1       -0.0020
     15 C         143.7526  134.2225  157.1174 C.ar    1  UNL1       -0.0026
     16 C         144.2022  132.8483  157.5165 C.ar    1  UNL1       -0.0003
     17 C         143.4746  131.6419  157.0014 C.ar    1  UNL1       -0.0000
     18 C         142.2974  131.8098  156.0871 C.ar    1  UNL1       -0.0003
     19 C         141.8478  133.1841  155.6878 C.ar    1  UNL1       -0.0026
     20 C         140.7425  135.9736  155.2629 C.3     1  UNL1        0.1612
     21 O         139.6536  136.4781  156.1627 O.3     1  UNL1       -0.3799
     22 H         139.4630  135.8139  156.8435 H       1  UNL1        0.2105
     23 C         142.7041  143.3203  161.3109 C.3     1  UNL1        0.1007
     24 C         142.9549  143.0127  162.7574 C.ar    1  UNL1        0.0129
     25 C         144.2360  143.2512  163.5002 C.ar    1  UNL1        0.0176
     26 C         144.0415  142.7984  164.9169 C.ar    1  UNL1        0.0799
     27 N         142.6402  142.2800  165.0497 N.ar    1  UNL1       -0.3038
     28 C         141.9686  142.4125  163.7150 C.ar    1  UNL1        0.0772
     29 C         142.0195  141.7264  166.2980 C.ar    1  UNL1        0.0640
     30 C         142.8521  141.5433  167.5321 C.ar    1  UNL1        0.0175
     31 C         142.2314  140.9897  168.7803 C.ar    1  UNL1        0.0053
     32 C         140.7780  140.6193  168.7945 C.ar    1  UNL1        0.0715
     33 C         139.9452  140.8024  167.5604 C.ar    1  UNL1        0.0053
     34 C         140.5660  141.3560  166.3122 C.ar    1  UNL1        0.0175
     35 C         140.1573  140.0657  170.0428 C.3     1  UNL1        0.4186
     36 F         139.5364  139.5121  171.2911 F       1  UNL1       -0.1659
     37 F         141.3855  139.2402  170.2875 F       1  UNL1       -0.1659
     38 F         138.9289  140.8912  169.7981 F       1  UNL1       -0.1659
@<TRIPOS>BOND
     1     7     8    2
     2     8     9   am
     3     9     1    1
     4     1     2    1
     5     2     3    1
     6     3     4    1
     7     4    23    1
     8    23    24    1
     9    24    25   ar
    10    25    26   ar
    11    26    27   ar
    12    27    29    1
    13    29    30   ar
    14    30    31   ar
    15    31    32   ar
    16    32    35    1
    17    35    36    1
    18    35    37    1
    19    35    38    1
    20    32    33   ar
    21    33    34   ar
    22    27    28   ar
    23     4     5    1
    24     5     6    1
    25     8    10   am
    26    10    13    1
    27    13    20    1
    28    20    21    1
    29    13    14    1
    30    14    15   ar
    31    15    16   ar
    32    16    17   ar
    33    17    18   ar
    34    18    19   ar
    35     6     1    1
    36    19    14   ar
    37    28    24   ar
    38    34    29   ar
    39     9    11    1
    40    10    12    1
    41    21    22    1
