@<TRIPOS>MOLECULE
*****
 28 32 0 0 0
SMALL
GASTEIGER

@<TRIPOS>ATOM
      1 C         138.7200  141.0427  163.1666 C.ar    1  UNL1        0.1770
      2 N         138.3981  141.9016  161.9797 N.ar    1  UNL1       -0.2018
      3 C         139.2322  143.1452  162.0677 C.ar    1  UNL1        0.1806
      4 N         139.3375  144.3482  161.1779 N.ar    1  UNL1       -0.2238
      5 C         140.2800  145.4608  161.5293 C.ar    1  UNL1        0.1007
      6 C         141.1174  145.3705  162.7706 C.ar    1  UNL1        0.0223
      7 C         141.0121  144.1675  163.6604 C.ar    1  UNL1        0.0223
      8 C         140.0695  143.0548  163.3089 C.ar    1  UNL1        0.1016
      9 N         139.7530  141.7554  163.9881 N.ar    1  UNL1       -0.2839
     10 C         140.3624  141.2564  165.2647 C.ar    1  UNL1        0.0658
     11 C         139.7154  141.5759  166.5797 C.ar    1  UNL1        0.0173
     12 C         140.3249  141.0769  167.8563 C.ar    1  UNL1       -0.0028
     13 C         141.5812  140.2584  167.8178 C.ar    1  UNL1       -0.0224
     14 C         142.2282  139.9388  166.5027 C.ar    1  UNL1       -0.0026
     15 C         143.4846  139.1203  166.4643 C.ar    1  UNL1       -0.0003
     16 C         144.1315  138.8008  165.1492 C.ar    1  UNL1       -0.0000
     17 C         143.5221  139.2998  163.8727 C.ar    1  UNL1        0.0000
     18 C         142.2657  140.1183  163.9111 C.ar    1  UNL1        0.0014
     19 C         141.6188  140.4378  165.2262 C.ar    1  UNL1        0.0159
     20 C         142.1906  139.7594  169.0943 C.3     1  UNL1        0.0224
     21 C         142.5562  138.6223  170.0017 C.3     1  UNL1        0.0047
     22 C         142.8806  140.0322  170.3980 C.3     1  UNL1        0.0047
     23 S         138.1150  139.7057  163.4774 S.3     1  UNL1       -0.0722
     24 C         139.1976  137.7340  164.7774 C.3     1  UNL1        0.0181
     25 C         138.9767  138.4781  163.4940 C.3     1  UNL1        0.0910
     26 C         139.6175  137.9945  162.2268 C.2     1  UNL1        0.0605
     27 O         138.9565  138.2544  160.9055 O.co2   1  UNL1       -0.5483
     28 O         140.9192  137.2510  162.2809 O.co2   1  UNL1       -0.5483
@<TRIPOS>UNITY_ATOM_ATTR
27 1
charge -1
@<TRIPOS>BOND
     1    24    25    1
     2    25    23    1
     3    23     1    1
     4     1     2   ar
     5     2     3   ar
     6     3     4   ar
     7     4     5   ar
     8     5     6   ar
     9     6     7   ar
    10     7     8   ar
    11     8     9   ar
    12     9    10    1
    13    10    11   ar
    14    11    12   ar
    15    12    13   ar
    16    13    20    1
    17    20    21    1
    18    21    22    1
    19    13    14   ar
    20    14    15   ar
    21    15    16   ar
    22    16    17   ar
    23    17    18   ar
    24    18    19   ar
    25    25    26    1
    26    26    27   ar
    27    26    28   ar
    28     9     1   ar
    29    19    10   ar
    30     8     3   ar
    31    22    20    1
    32    19    14   ar
@<TRIPOS>MOLECULE
*****
 28 32 0 0 0
SMALL
GASTEIGER

@<TRIPOS>ATOM
      1 C         139.5229  140.0079  166.8528 C.ar    1  UNL1        0.1770
      2 N         139.5875  139.4896  168.2589 N.ar    1  UNL1       -0.2018
      3 C         139.9547  140.6329  169.1579 C.ar    1  UNL1        0.1806
      4 N         140.1622  140.7169  170.6411 N.ar    1  UNL1       -0.2238
      5 C         140.5322  142.0257  171.2736 C.ar    1  UNL1        0.1007
      6 C         140.6946  143.2504  170.4230 C.ar    1  UNL1        0.0223
      7 C         140.4871  143.1664  168.9398 C.ar    1  UNL1        0.0223
      8 C         140.1171  141.8576  168.3073 C.ar    1  UNL1        0.1016
      9 N         139.8503  141.4714  166.8826 N.ar    1  UNL1       -0.2839
     10 C         139.9017  142.3878  165.6962 C.ar    1  UNL1        0.0658
     11 C         138.6329  142.7960  165.0083 C.ar    1  UNL1        0.0173
     12 C         138.6843  143.7124  163.8218 C.ar    1  UNL1       -0.0028
     13 C         140.0046  144.2205  163.3233 C.ar    1  UNL1       -0.0224
     14 C         141.2736  143.8123  164.0113 C.ar    1  UNL1       -0.0026
     15 C         142.5939  144.3204  163.5128 C.ar    1  UNL1       -0.0003
     16 C         143.8628  143.9121  164.2007 C.ar    1  UNL1       -0.0000
     17 C         143.8113  142.9958  165.3872 C.ar    1  UNL1        0.0000
     18 C         142.4910  142.4876  165.8857 C.ar    1  UNL1        0.0014
     19 C         141.2221  142.8959  165.1977 C.ar    1  UNL1        0.0159
     20 C         140.0561  145.1369  162.1369 C.3     1  UNL1        0.0224
     21 C         140.5034  145.4214  160.7337 C.3     1  UNL1        0.0047
     22 C         139.6979  146.4395  161.4852 C.3     1  UNL1        0.0047
     23 S         139.1895  139.2037  165.6312 S.3     1  UNL1       -0.0722
     24 C         141.7218  138.8502  165.1706 C.3     1  UNL1        0.0181
     25 C         140.2882  138.5983  164.8088 C.3     1  UNL1        0.0910
     26 C         139.9530  137.7409  163.6244 C.2     1  UNL1        0.0605
     27 O         141.0172  136.9032  162.9798 O.co2   1  UNL1       -0.5483
     28 O         138.5536  137.7214  163.0847 O.co2   1  UNL1       -0.5483
@<TRIPOS>UNITY_ATOM_ATTR
27 1
charge -1
@<TRIPOS>BOND
     1    24    25    1
     2    25    23    1
     3    23     1    1
     4     1     2   ar
     5     2     3   ar
     6     3     4   ar
     7     4     5   ar
     8     5     6   ar
     9     6     7   ar
    10     7     8   ar
    11     8     9   ar
    12     9    10    1
    13    10    11   ar
    14    11    12   ar
    15    12    13   ar
    16    13    20    1
    17    20    21    1
    18    21    22    1
    19    13    14   ar
    20    14    15   ar
    21    15    16   ar
    22    16    17   ar
    23    17    18   ar
    24    18    19   ar
    25    25    26    1
    26    26    27   ar
    27    26    28   ar
    28     9     1   ar
    29    19    10   ar
    30     8     3   ar
    31    22    20    1
    32    19    14   ar
@<TRIPOS>MOLECULE
*****
 28 32 0 0 0
SMALL
GASTEIGER

@<TRIPOS>ATOM
      1 C         138.2546  142.2832  162.7523 C.ar    1  UNL1        0.1770
      2 N         138.0787  142.1293  161.2706 N.ar    1  UNL1       -0.2018
      3 C         138.7047  140.8288  160.8621 C.ar    1  UNL1        0.1806
      4 N         138.8349  140.1524  159.5296 N.ar    1  UNL1       -0.2238
      5 C         139.5279  138.8261  159.4264 C.ar    1  UNL1        0.1007
      6 C         140.0907  138.1763  160.6557 C.ar    1  UNL1        0.0223
      7 C         139.9605  138.8527  161.9881 C.ar    1  UNL1        0.0223
      8 C         139.2675  140.1790  162.0913 C.ar    1  UNL1        0.1016
      9 N         138.9893  141.0778  163.2595 N.ar    1  UNL1       -0.2839
     10 C         139.3777  140.8171  164.6847 C.ar    1  UNL1        0.0658
     11 C         138.4822  140.0007  165.5688 C.ar    1  UNL1        0.0173
     12 C         138.8706  139.7400  166.9940 C.ar    1  UNL1       -0.0028
     13 C         140.1544  140.2956  167.5351 C.ar    1  UNL1       -0.0224
     14 C         141.0500  141.1121  166.6511 C.ar    1  UNL1       -0.0026
     15 C         142.3339  141.6677  167.1922 C.ar    1  UNL1       -0.0003
     16 C         143.2294  142.4841  166.3082 C.ar    1  UNL1       -0.0000
     17 C         142.8410  142.7448  164.8830 C.ar    1  UNL1        0.0000
     18 C         141.5572  142.1892  164.3418 C.ar    1  UNL1        0.0014
     19 C         140.6617  141.3728  165.2259 C.ar    1  UNL1        0.0159
     20 C         140.5428  140.0349  168.9603 C.3     1  UNL1        0.0224
     21 C         141.5120  139.4807  169.9620 C.3     1  UNL1        0.0047
     22 C         140.2462  140.1375  170.4271 C.3     1  UNL1        0.0047
     23 S         137.7793  143.4395  163.5812 S.3     1  UNL1       -0.0722
     24 C         138.9121  144.8281  165.4623 C.3     1  UNL1        0.0181
     25 C         138.7458  144.5046  164.0071 C.3     1  UNL1        0.0910
     26 C         139.5461  145.2462  162.9777 C.2     1  UNL1        0.0605
     27 O         138.8732  145.7863  161.7507 O.co2   1  UNL1       -0.5483
     28 O         141.0194  145.4476  163.1752 O.co2   1  UNL1       -0.5483
@<TRIPOS>UNITY_ATOM_ATTR
27 1
charge -1
@<TRIPOS>BOND
     1    24    25    1
     2    25    23    1
     3    23     1    1
     4     1     2   ar
     5     2     3   ar
     6     3     4   ar
     7     4     5   ar
     8     5     6   ar
     9     6     7   ar
    10     7     8   ar
    11     8     9   ar
    12     9    10    1
    13    10    11   ar
    14    11    12   ar
    15    12    13   ar
    16    13    20    1
    17    20    21    1
    18    21    22    1
    19    13    14   ar
    20    14    15   ar
    21    15    16   ar
    22    16    17   ar
    23    17    18   ar
    24    18    19   ar
    25    25    26    1
    26    26    27   ar
    27    26    28   ar
    28     9     1   ar
    29    19    10   ar
    30     8     3   ar
    31    22    20    1
    32    19    14   ar
@<TRIPOS>MOLECULE
*****
 28 32 0 0 0
SMALL
GASTEIGER

@<TRIPOS>ATOM
      1 C         140.9905  142.3883  162.6847 C.ar    1  UNL1        0.1770
      2 N         141.3785  142.0081  161.2865 N.ar    1  UNL1       -0.2018
      3 C         142.2216  140.7696  161.3600 C.ar    1  UNL1        0.1806
      4 N         142.8853  139.9429  160.2989 N.ar    1  UNL1       -0.2238
      5 C         143.6821  138.7309  160.6814 C.ar    1  UNL1        0.1007
      6 C         143.8151  138.3457  162.1250 C.ar    1  UNL1        0.0223
      7 C         143.1514  139.1725  163.1861 C.ar    1  UNL1        0.0223
      8 C         142.3546  140.3844  162.8036 C.ar    1  UNL1        0.1016
      9 N         141.5938  141.3848  163.6223 N.ar    1  UNL1       -0.2839
     10 C         141.4597  141.3821  165.1163 C.ar    1  UNL1        0.0658
     11 C         142.4229  142.1665  165.9571 C.ar    1  UNL1        0.0173
     12 C         142.2888  142.1639  167.4511 C.ar    1  UNL1       -0.0028
     13 C         141.1916  141.3768  168.1043 C.ar    1  UNL1       -0.0224
     14 C         140.2284  140.5924  167.2635 C.ar    1  UNL1       -0.0026
     15 C         139.1312  139.8053  167.9167 C.ar    1  UNL1       -0.0003
     16 C         138.1681  139.0209  167.0758 C.ar    1  UNL1       -0.0000
     17 C         138.3021  139.0236  165.5818 C.ar    1  UNL1        0.0000
     18 C         139.3993  139.8106  164.9287 C.ar    1  UNL1        0.0014
     19 C         140.3625  140.5950  165.7695 C.ar    1  UNL1        0.0159
     20 C         141.0576  141.3742  169.5983 C.3     1  UNL1        0.0224
     21 C         141.2902  140.7086  170.9222 C.3     1  UNL1        0.0047
     22 C         140.5928  142.0352  170.8620 C.3     1  UNL1        0.0047
     23 S         140.1473  143.5653  163.0765 S.3     1  UNL1       -0.0722
     24 C         138.1740  143.8843  164.7362 C.3     1  UNL1        0.0181
     25 C         138.7030  143.3687  163.4308 C.3     1  UNL1        0.0910
     26 C         137.7878  142.6564  162.4795 C.2     1  UNL1        0.0605
     27 O         136.9182  141.5374  162.9713 O.co2   1  UNL1       -0.5483
     28 O         137.7421  143.0629  161.0363 O.co2   1  UNL1       -0.5483
@<TRIPOS>UNITY_ATOM_ATTR
27 1
charge -1
@<TRIPOS>BOND
     1    24    25    1
     2    25    23    1
     3    23     1    1
     4     1     2   ar
     5     2     3   ar
     6     3     4   ar
     7     4     5   ar
     8     5     6   ar
     9     6     7   ar
    10     7     8   ar
    11     8     9   ar
    12     9    10    1
    13    10    11   ar
    14    11    12   ar
    15    12    13   ar
    16    13    20    1
    17    20    21    1
    18    21    22    1
    19    13    14   ar
    20    14    15   ar
    21    15    16   ar
    22    16    17   ar
    23    17    18   ar
    24    18    19   ar
    25    25    26    1
    26    26    27   ar
    27    26    28   ar
    28     9     1   ar
    29    19    10   ar
    30     8     3   ar
    31    22    20    1
    32    19    14   ar
@<TRIPOS>MOLECULE
*****
 28 32 0 0 0
SMALL
GASTEIGER

@<TRIPOS>ATOM
      1 C         142.4816  141.3097  162.5854 C.ar    1  UNL1        0.1770
      2 N         142.3203  140.5646  161.2936 N.ar    1  UNL1       -0.2018
      3 C         141.0617  139.7532  161.3806 C.ar    1  UNL1        0.1806
      4 N         140.3975  138.8239  160.4084 N.ar    1  UNL1       -0.2238
      5 C         139.1166  138.1383  160.7817 C.ar    1  UNL1        0.1007
      6 C         138.5001  138.3820  162.1273 C.ar    1  UNL1        0.0223
      7 C         139.1644  139.3113  163.0995 C.ar    1  UNL1        0.0223
      8 C         140.4452  139.9969  162.7261 C.ar    1  UNL1        0.1016
      9 N         141.3227  140.9589  163.4708 N.ar    1  UNL1       -0.2839
     10 C         141.0833  141.4787  164.8573 C.ar    1  UNL1        0.0658
     11 C         140.2670  142.7203  165.0622 C.ar    1  UNL1        0.0173
     12 C         140.0276  143.2401  166.4488 C.ar    1  UNL1       -0.0028
     13 C         140.6046  142.5184  167.6303 C.ar    1  UNL1       -0.0224
     14 C         141.4210  141.2768  167.4254 C.ar    1  UNL1       -0.0026
     15 C         141.9980  140.5551  168.6070 C.ar    1  UNL1       -0.0003
     16 C         142.8143  139.3135  168.4021 C.ar    1  UNL1       -0.0000
     17 C         143.0537  138.7937  167.0155 C.ar    1  UNL1        0.0000
     18 C         142.4767  139.5154  165.8340 C.ar    1  UNL1        0.0014
     19 C         141.6604  140.7569  166.0389 C.ar    1  UNL1        0.0159
     20 C         140.3652  143.0383  169.0169 C.3     1  UNL1        0.0224
     21 C         139.8729  142.8242  170.4174 C.3     1  UNL1        0.0047
     22 C         140.4430  144.1528  170.0177 C.3     1  UNL1        0.0047
     23 S         143.6046  142.2421  162.9311 S.3     1  UNL1       -0.0722
     24 C         143.9292  144.3510  164.4134 C.3     1  UNL1        0.0181
     25 C         143.3196  143.6872  163.2145 C.3     1  UNL1        0.0910
     26 C         142.4247  144.4687  162.2985 C.2     1  UNL1        0.0605
     27 O         142.6159  144.3862  160.8131 O.co2   1  UNL1       -0.5483
     28 O         141.3387  145.3325  162.8682 O.co2   1  UNL1       -0.5483
@<TRIPOS>UNITY_ATOM_ATTR
27 1
charge -1
@<TRIPOS>BOND
     1    24    25    1
     2    25    23    1
     3    23     1    1
     4     1     2   ar
     5     2     3   ar
     6     3     4   ar
     7     4     5   ar
     8     5     6   ar
     9     6     7   ar
    10     7     8   ar
    11     8     9   ar
    12     9    10    1
    13    10    11   ar
    14    11    12   ar
    15    12    13   ar
    16    13    20    1
    17    20    21    1
    18    21    22    1
    19    13    14   ar
    20    14    15   ar
    21    15    16   ar
    22    16    17   ar
    23    17    18   ar
    24    18    19   ar
    25    25    26    1
    26    26    27   ar
    27    26    28   ar
    28     9     1   ar
    29    19    10   ar
    30     8     3   ar
    31    22    20    1
    32    19    14   ar
@<TRIPOS>MOLECULE
*****
 28 32 0 0 0
SMALL
GASTEIGER

@<TRIPOS>ATOM
      1 C         143.2409  142.0497  163.3481 C.ar    1  UNL1        0.1770
      2 N         143.4112  142.7929  162.0564 N.ar    1  UNL1       -0.2018
      3 C         142.2353  143.7093  161.8904 C.ar    1  UNL1        0.1806
      4 N         141.8654  144.6819  160.8100 N.ar    1  UNL1       -0.2238
      5 C         140.5986  145.4776  160.9189 C.ar    1  UNL1        0.1007
      6 C         139.7015  145.3007  162.1080 C.ar    1  UNL1        0.0223
      7 C         140.0714  144.3280  163.1883 C.ar    1  UNL1        0.0223
      8 C         141.3383  143.5323  163.0795 C.ar    1  UNL1        0.1016
      9 N         141.9597  142.5066  163.9804 N.ar    1  UNL1       -0.2839
     10 C         141.3986  142.0228  165.2847 C.ar    1  UNL1        0.0658
     11 C         141.7972  142.6916  166.5668 C.ar    1  UNL1        0.0173
     12 C         141.2361  142.2078  167.8710 C.ar    1  UNL1       -0.0028
     13 C         140.2764  141.0552  167.8932 C.ar    1  UNL1       -0.0224
     14 C         139.8777  140.3864  166.6110 C.ar    1  UNL1       -0.0026
     15 C         138.9180  139.2338  166.6332 C.ar    1  UNL1       -0.0003
     16 C         138.5195  138.5651  165.3511 C.ar    1  UNL1       -0.0000
     17 C         139.0806  139.0489  164.0468 C.ar    1  UNL1        0.0000
     18 C         140.0403  140.2014  164.0247 C.ar    1  UNL1        0.0014
     19 C         140.4389  140.8702  165.3068 C.ar    1  UNL1        0.0159
     20 C         139.7152  140.5714  169.1974 C.3     1  UNL1        0.0224
     21 C         138.5347  140.2860  170.0776 C.3     1  UNL1        0.0047
     22 C         139.9239  140.0189  170.5762 C.3     1  UNL1        0.0047
     23 S         144.1859  141.0287  163.9090 S.3     1  UNL1       -0.0722
     24 C         143.6623  138.9298  165.3480 C.3     1  UNL1        0.0181
     25 C         143.7665  139.5918  164.0061 C.3     1  UNL1        0.0910
     26 C         143.4513  138.8168  162.7609 C.2     1  UNL1        0.0605
     27 O         144.2036  139.0955  161.4935 O.co2   1  UNL1       -0.5483
     28 O         142.3838  137.7633  162.7833 O.co2   1  UNL1       -0.5483
@<TRIPOS>UNITY_ATOM_ATTR
27 1
charge -1
@<TRIPOS>BOND
     1    24    25    1
     2    25    23    1
     3    23     1    1
     4     1     2   ar
     5     2     3   ar
     6     3     4   ar
     7     4     5   ar
     8     5     6   ar
     9     6     7   ar
    10     7     8   ar
    11     8     9   ar
    12     9    10    1
    13    10    11   ar
    14    11    12   ar
    15    12    13   ar
    16    13    20    1
    17    20    21    1
    18    21    22    1
    19    13    14   ar
    20    14    15   ar
    21    15    16   ar
    22    16    17   ar
    23    17    18   ar
    24    18    19   ar
    25    25    26    1
    26    26    27   ar
    27    26    28   ar
    28     9     1   ar
    29    19    10   ar
    30     8     3   ar
    31    22    20    1
    32    19    14   ar
@<TRIPOS>MOLECULE
*****
 28 32 0 0 0
SMALL
GASTEIGER

@<TRIPOS>ATOM
      1 C         142.8229  139.7270  166.3941 C.ar    1  UNL1        0.1770
      2 N         143.0288  139.0915  167.7372 N.ar    1  UNL1       -0.2018
      3 C         142.5063  140.0338  168.7808 C.ar    1  UNL1        0.1806
      4 N         142.4437  139.9403  170.2765 N.ar    1  UNL1       -0.2238
      5 C         141.8524  141.0646  171.0742 C.ar    1  UNL1        0.1007
      6 C         141.3236  142.2823  170.3761 C.ar    1  UNL1        0.0223
      7 C         141.3861  142.3759  168.8803 C.ar    1  UNL1        0.0223
      8 C         141.9775  141.2516  168.0827 C.ar    1  UNL1        0.1016
      9 N         142.1731  141.0620  166.6076 N.ar    1  UNL1       -0.2839
     10 C         141.7869  142.0363  165.5345 C.ar    1  UNL1        0.0658
     11 C         142.7755  143.0593  165.0591 C.ar    1  UNL1        0.0173
     12 C         142.3892  144.0336  163.9860 C.ar    1  UNL1       -0.0028
     13 C         141.0144  143.9849  163.3883 C.ar    1  UNL1       -0.0224
     14 C         140.0257  142.9618  163.8637 C.ar    1  UNL1       -0.0026
     15 C         138.6508  142.9131  163.2660 C.ar    1  UNL1       -0.0003
     16 C         137.6622  141.8900  163.7413 C.ar    1  UNL1       -0.0000
     17 C         138.0485  140.9157  164.8144 C.ar    1  UNL1        0.0000
     18 C         139.4233  140.9645  165.4122 C.ar    1  UNL1        0.0014
     19 C         140.4119  141.9875  164.9368 C.ar    1  UNL1        0.0159
     20 C         140.6281  144.9591  162.3152 C.3     1  UNL1        0.0224
     21 C         139.9370  146.2224  161.8952 C.3     1  UNL1        0.0047
     22 C         140.6502  145.3833  160.8766 C.3     1  UNL1        0.0047
     23 S         143.2004  139.1318  165.0700 S.3     1  UNL1       -0.0722
     24 C         140.9435  137.8500  164.9553 C.3     1  UNL1        0.0181
     25 C         142.1928  138.3429  164.2875 C.3     1  UNL1        0.0910
     26 C         142.4347  138.0469  162.8369 C.2     1  UNL1        0.0605
     27 O         143.7203  138.4691  162.1895 O.co2   1  UNL1       -0.5483
     28 O         141.3910  137.3289  162.0338 O.co2   1  UNL1       -0.5483
@<TRIPOS>UNITY_ATOM_ATTR
27 1
charge -1
@<TRIPOS>BOND
     1    24    25    1
     2    25    23    1
     3    23     1    1
     4     1     2   ar
     5     2     3   ar
     6     3     4   ar
     7     4     5   ar
     8     5     6   ar
     9     6     7   ar
    10     7     8   ar
    11     8     9   ar
    12     9    10    1
    13    10    11   ar
    14    11    12   ar
    15    12    13   ar
    16    13    20    1
    17    20    21    1
    18    21    22    1
    19    13    14   ar
    20    14    15   ar
    21    15    16   ar
    22    16    17   ar
    23    17    18   ar
    24    18    19   ar
    25    25    26    1
    26    26    27   ar
    27    26    28   ar
    28     9     1   ar
    29    19    10   ar
    30     8     3   ar
    31    22    20    1
    32    19    14   ar
@<TRIPOS>MOLECULE
*****
 28 32 0 0 0
SMALL
GASTEIGER

@<TRIPOS>ATOM
      1 C         140.0671  141.4813  162.5950 C.ar    1  UNL1        0.1770
      2 N         139.9927  140.8034  161.2590 N.ar    1  UNL1       -0.2018
      3 C         141.0865  139.7788  161.1976 C.ar    1  UNL1        0.1806
      4 N         141.4962  138.8109  160.1275 N.ar    1  UNL1       -0.2238
      5 C         142.6562  137.8876  160.3554 C.ar    1  UNL1        0.1007
      6 C         143.4066  137.9324  161.6534 C.ar    1  UNL1        0.0223
      7 C         142.9970  138.9003  162.7236 C.ar    1  UNL1        0.0223
      8 C         141.8369  139.8235  162.4957 C.ar    1  UNL1        0.1016
      9 N         141.2069  140.8757  163.3593 N.ar    1  UNL1       -0.2839
     10 C         141.6405  141.2556  164.7441 C.ar    1  UNL1        0.0658
     11 C         142.8605  142.1057  164.9413 C.ar    1  UNL1        0.0173
     12 C         143.2941  142.4856  166.3261 C.ar    1  UNL1       -0.0028
     13 C         142.5077  142.0155  167.5137 C.ar    1  UNL1       -0.0224
     14 C         141.2876  141.1654  167.3166 C.ar    1  UNL1       -0.0026
     15 C         140.5012  140.6953  168.5042 C.ar    1  UNL1       -0.0003
     16 C         139.2812  139.8452  168.3070 C.ar    1  UNL1       -0.0000
     17 C         138.8476  139.4653  166.9222 C.ar    1  UNL1        0.0000
     18 C         139.6340  139.9354  165.7346 C.ar    1  UNL1        0.0014
     19 C         140.8540  140.7855  165.9318 C.ar    1  UNL1        0.0159
     20 C         142.9413  142.3954  168.8985 C.3     1  UNL1        0.0224
     21 C         142.6232  142.9667  170.2485 C.3     1  UNL1        0.0047
     22 C         144.0104  142.4821  169.9470 C.3     1  UNL1        0.0047
     23 S         139.1609  142.5732  163.0813 S.3     1  UNL1       -0.0722
     24 C         139.8456  144.4718  164.7173 C.3     1  UNL1        0.0181
     25 C         139.7057  143.9506  163.3178 C.3     1  UNL1        0.0910
     26 C         140.1106  144.8068  162.1545 C.2     1  UNL1        0.0605
     27 O         139.1229  145.7548  161.5413 O.co2   1  UNL1       -0.5483
     28 O         141.5030  144.7151  161.6045 O.co2   1  UNL1       -0.5483
@<TRIPOS>UNITY_ATOM_ATTR
27 1
charge -1
@<TRIPOS>BOND
     1    24    25    1
     2    25    23    1
     3    23     1    1
     4     1     2   ar
     5     2     3   ar
     6     3     4   ar
     7     4     5   ar
     8     5     6   ar
     9     6     7   ar
    10     7     8   ar
    11     8     9   ar
    12     9    10    1
    13    10    11   ar
    14    11    12   ar
    15    12    13   ar
    16    13    20    1
    17    20    21    1
    18    21    22    1
    19    13    14   ar
    20    14    15   ar
    21    15    16   ar
    22    16    17   ar
    23    17    18   ar
    24    18    19   ar
    25    25    26    1
    26    26    27   ar
    27    26    28   ar
    28     9     1   ar
    29    19    10   ar
    30     8     3   ar
    31    22    20    1
    32    19    14   ar
@<TRIPOS>MOLECULE
*****
 28 32 0 0 0
SMALL
GASTEIGER

@<TRIPOS>ATOM
      1 C         141.6215  141.9860  162.1251 C.ar    1  UNL1        0.1770
      2 N         141.3662  141.2693  160.8324 N.ar    1  UNL1       -0.2018
      3 C         140.3902  140.1623  161.1011 C.ar    1  UNL1        0.1806
      4 N         139.7733  139.1289  160.2059 N.ar    1  UNL1       -0.2238
      5 C         138.8086  138.1280  160.7695 C.ar    1  UNL1        0.1007
      6 C         138.4607  138.1607  162.2282 C.ar    1  UNL1        0.0223
      7 C         139.0776  139.1942  163.1234 C.ar    1  UNL1        0.0223
      8 C         140.0424  140.1950  162.5598 C.ar    1  UNL1        0.1016
      9 N         140.8034  141.3221  163.1927 N.ar    1  UNL1       -0.2839
     10 C         140.7547  141.7160  164.6392 C.ar    1  UNL1        0.0658
     11 C         139.9943  142.9392  165.0583 C.ar    1  UNL1        0.0173
     12 C         139.9457  143.3331  166.5048 C.ar    1  UNL1       -0.0028
     13 C         140.6575  142.5040  167.5323 C.ar    1  UNL1       -0.0224
     14 C         141.4179  141.2808  167.1133 C.ar    1  UNL1       -0.0026
     15 C         142.1297  140.4516  168.1408 C.ar    1  UNL1       -0.0003
     16 C         142.8901  139.2284  167.7217 C.ar    1  UNL1       -0.0000
     17 C         142.9388  138.8345  166.2752 C.ar    1  UNL1        0.0000
     18 C         142.2270  139.6636  165.2477 C.ar    1  UNL1        0.0014
     19 C         141.4666  140.8868  165.6668 C.ar    1  UNL1        0.0159
     20 C         140.6088  142.8979  168.9788 C.3     1  UNL1        0.0224
     21 C         141.2408  143.5613  170.1664 C.3     1  UNL1        0.0047
     22 C         139.8926  142.9169  170.2966 C.3     1  UNL1        0.0047
     23 S         142.5347  143.1605  162.3166 S.3     1  UNL1       -0.0722
     24 C         143.9982  143.4260  164.4467 C.3     1  UNL1        0.0181
     25 C         143.8468  142.9834  163.0216 C.3     1  UNL1        0.0910
     26 C         145.0075  142.3637  162.3013 C.2     1  UNL1        0.0605
     27 O         145.0825  142.4285  160.8045 O.co2   1  UNL1       -0.5483
     28 O         146.0931  141.6792  163.0777 O.co2   1  UNL1       -0.5483
@<TRIPOS>UNITY_ATOM_ATTR
27 1
charge -1
@<TRIPOS>BOND
     1    24    25    1
     2    25    23    1
     3    23     1    1
     4     1     2   ar
     5     2     3   ar
     6     3     4   ar
     7     4     5   ar
     8     5     6   ar
     9     6     7   ar
    10     7     8   ar
    11     8     9   ar
    12     9    10    1
    13    10    11   ar
    14    11    12   ar
    15    12    13   ar
    16    13    20    1
    17    20    21    1
    18    21    22    1
    19    13    14   ar
    20    14    15   ar
    21    15    16   ar
    22    16    17   ar
    23    17    18   ar
    24    18    19   ar
    25    25    26    1
    26    26    27   ar
    27    26    28   ar
    28     9     1   ar
    29    19    10   ar
    30     8     3   ar
    31    22    20    1
    32    19    14   ar
