@<TRIPOS>MOLECULE
*****
 17 17 0 0 0
SMALL
GASTEIGER

@<TRIPOS>ATOM
      1 C         138.5564  140.4079  165.0029 C.ar    1  UNL1       -0.0222
      2 C         139.5796  141.3941  165.4828 C.ar    1  UNL1       -0.0046
      3 C         140.1166  141.2977  166.8801 C.ar    1  UNL1       -0.0046
      4 C         139.6304  140.2151  167.7974 C.ar    1  UNL1       -0.0228
      5 C         138.6072  139.2289  167.3175 C.ar    1  UNL1       -0.0046
      6 C         138.0702  139.3253  165.9202 C.ar    1  UNL1       -0.0046
      7 C         140.1674  140.1188  169.1947 C.3     1  UNL1        0.0189
      8 C         141.5545  139.9482  168.6498 C.3     1  UNL1        0.0044
      9 C         138.7803  140.2894  169.7395 C.3     1  UNL1        0.0044
     10 C         140.7044  140.0224  170.5920 C.3     1  UNL1        0.0044
     11 C         138.0194  140.5042  163.6056 C.3     1  UNL1        0.0264
     12 C         137.2274  141.7076  163.1879 C.3     1  UNL1        0.0061
     13 C         137.9173  142.8723  162.5418 C.3     1  UNL1        0.0177
     14 C         137.8126  144.2387  163.1519 C.3     1  UNL1        0.0722
     15 C         138.5861  144.9427  165.5301 C.3     1  UNL1        0.0897
     16 N         138.8865  144.7318  164.0757 N.3     1  UNL1       -0.2703
     17 C         140.2609  145.0140  163.5452 C.3     1  UNL1        0.0897
@<TRIPOS>BOND
     1    15    16    1
     2    16    17    1
     3    16    14    1
     4    14    13    1
     5    13    12    1
     6    12    11    1
     7    11     1    1
     8     1     2   ar
     9     2     3   ar
    10     3     4   ar
    11     4     7    1
    12     7     8    1
    13     7     9    1
    14     7    10    1
    15     4     5   ar
    16     5     6   ar
    17     6     1   ar
@<TRIPOS>MOLECULE
*****
 17 17 0 0 0
SMALL
GASTEIGER

@<TRIPOS>ATOM
      1 C         138.6369  140.5597  165.0104 C.ar    1  UNL1       -0.0222
      2 C         138.1121  139.4926  165.9246 C.ar    1  UNL1       -0.0046
      3 C         138.6863  139.3355  167.3015 C.ar    1  UNL1       -0.0046
      4 C         139.7852  140.2456  167.7641 C.ar    1  UNL1       -0.0228
      5 C         140.3100  141.3127  166.8499 C.ar    1  UNL1       -0.0046
      6 C         139.7359  141.4698  165.4731 C.ar    1  UNL1       -0.0046
      7 C         140.3594  140.0885  169.1410 C.3     1  UNL1        0.0189
      8 C         139.0110  140.3689  169.7352 C.3     1  UNL1        0.0044
      9 C         141.7078  139.8081  168.5467 C.3     1  UNL1        0.0044
     10 C         140.9335  139.9314  170.5178 C.3     1  UNL1        0.0044
     11 C         138.0628  140.7168  163.6336 C.3     1  UNL1        0.0264
     12 C         137.2722  141.9433  163.2861 C.3     1  UNL1        0.0061
     13 C         137.9026  143.0375  162.4766 C.3     1  UNL1        0.0177
     14 C         138.0146  144.4213  163.0446 C.3     1  UNL1        0.0722
     15 C         138.5629  144.9237  165.5340 C.3     1  UNL1        0.0897
     16 N         139.0185  144.7113  164.1207 N.3     1  UNL1       -0.2703
     17 C         140.4781  144.7889  163.7836 C.3     1  UNL1        0.0897
@<TRIPOS>BOND
     1    15    16    1
     2    16    17    1
     3    16    14    1
     4    14    13    1
     5    13    12    1
     6    12    11    1
     7    11     1    1
     8     1     2   ar
     9     2     3   ar
    10     3     4   ar
    11     4     7    1
    12     7     8    1
    13     7     9    1
    14     7    10    1
    15     4     5   ar
    16     5     6   ar
    17     6     1   ar
@<TRIPOS>MOLECULE
*****
 17 17 0 0 0
SMALL
GASTEIGER

@<TRIPOS>ATOM
      1 C         139.1513  140.3467  166.2951 C.ar    1  UNL1       -0.0222
      2 C         139.9110  141.5764  165.8945 C.ar    1  UNL1       -0.0046
      3 C         140.7708  142.2869  166.8975 C.ar    1  UNL1       -0.0046
      4 C         140.8708  141.7676  168.3012 C.ar    1  UNL1       -0.0228
      5 C         140.1110  140.5380  168.7018 C.ar    1  UNL1       -0.0046
      6 C         139.2512  139.8275  167.6988 C.ar    1  UNL1       -0.0046
      7 C         141.7306  142.4781  169.3042 C.3     1  UNL1        0.0189
      8 C         142.9054  141.6433  168.8884 C.3     1  UNL1        0.0044
      9 C         140.5557  143.3129  169.7199 C.3     1  UNL1        0.0044
     10 C         142.5904  143.1886  170.3072 C.3     1  UNL1        0.0044
     11 C         138.2915  139.6363  165.2921 C.3     1  UNL1        0.0264
     12 C         138.9051  138.6501  164.3430 C.3     1  UNL1        0.0061
     13 C         139.7628  137.5373  164.8684 C.3     1  UNL1        0.0177
     14 C         141.2284  137.5059  164.5506 C.3     1  UNL1        0.0722
     15 C         142.4415  139.6750  163.7934 C.3     1  UNL1        0.0897
     16 N         142.0906  138.6911  164.8699 N.3     1  UNL1       -0.2703
     17 C         142.6020  138.8923  166.2656 C.3     1  UNL1        0.0897
@<TRIPOS>BOND
     1    15    16    1
     2    16    17    1
     3    16    14    1
     4    14    13    1
     5    13    12    1
     6    12    11    1
     7    11     1    1
     8     1     2   ar
     9     2     3   ar
    10     3     4   ar
    11     4     7    1
    12     7     8    1
    13     7     9    1
    14     7    10    1
    15     4     5   ar
    16     5     6   ar
    17     6     1   ar
@<TRIPOS>MOLECULE
*****
 17 17 0 0 0
SMALL
GASTEIGER

@<TRIPOS>ATOM
      1 C         139.1722  140.0674  166.5791 C.ar    1  UNL1       -0.0222
      2 C         139.9890  141.2112  166.0552 C.ar    1  UNL1       -0.0046
      3 C         140.8141  142.0371  166.9971 C.ar    1  UNL1       -0.0046
      4 C         140.8225  141.7191  168.4629 C.ar    1  UNL1       -0.0228
      5 C         140.0057  140.5753  168.9869 C.ar    1  UNL1       -0.0046
      6 C         139.1806  139.7494  168.0450 C.ar    1  UNL1       -0.0046
      7 C         141.6476  142.5450  169.4048 C.3     1  UNL1        0.0189
      8 C         140.4940  143.4855  169.5907 C.3     1  UNL1        0.0044
      9 C         142.8012  141.6044  169.2189 C.3     1  UNL1        0.0044
     10 C         142.4727  143.3708  170.3467 C.3     1  UNL1        0.0044
     11 C         138.3471  139.2416  165.6373 C.3     1  UNL1        0.0264
     12 C         138.8897  137.9508  165.0992 C.3     1  UNL1        0.0061
     13 C         140.3398  137.8422  164.7312 C.3     1  UNL1        0.0177
     14 C         140.7548  137.0073  163.5561 C.3     1  UNL1        0.0722
     15 C         142.1304  137.8139  161.5050 C.3     1  UNL1        0.0897
     16 N         140.8087  137.6151  162.1858 N.3     1  UNL1       -0.2703
     17 C         139.5409  138.0241  161.4964 C.3     1  UNL1        0.0897
@<TRIPOS>BOND
     1    15    16    1
     2    16    17    1
     3    16    14    1
     4    14    13    1
     5    13    12    1
     6    12    11    1
     7    11     1    1
     8     1     2   ar
     9     2     3   ar
    10     3     4   ar
    11     4     7    1
    12     7     8    1
    13     7     9    1
    14     7    10    1
    15     4     5   ar
    16     5     6   ar
    17     6     1   ar
@<TRIPOS>MOLECULE
*****
 17 17 0 0 0
SMALL
GASTEIGER

@<TRIPOS>ATOM
      1 C         140.8366  140.3686  166.9725 C.ar    1  UNL1       -0.0222
      2 C         141.0109  141.7635  166.4493 C.ar    1  UNL1       -0.0046
      3 C         142.2334  142.1198  165.6564 C.ar    1  UNL1       -0.0046
      4 C         143.2815  141.0812  165.3867 C.ar    1  UNL1       -0.0228
      5 C         143.1072  139.6863  165.9100 C.ar    1  UNL1       -0.0046
      6 C         141.8847  139.3300  166.7029 C.ar    1  UNL1       -0.0046
      7 C         144.5039  141.4375  164.5938 C.3     1  UNL1        0.0189
      8 C         144.6746  139.9975  164.2099 C.3     1  UNL1        0.0044
      9 C         144.3332  142.8775  164.9778 C.3     1  UNL1        0.0044
     10 C         145.7264  141.7938  163.8010 C.3     1  UNL1        0.0044
     11 C         139.6142  140.0123  167.7654 C.3     1  UNL1        0.0264
     12 C         139.5784  140.2663  169.2433 C.3     1  UNL1        0.0061
     13 C         140.7804  139.9592  170.0864 C.3     1  UNL1        0.0177
     14 C         141.5141  141.0691  170.7792 C.3     1  UNL1        0.0722
     15 C         141.1941  143.4903  169.8928 C.3     1  UNL1        0.0897
     16 N         142.0187  142.2412  169.9907 N.3     1  UNL1       -0.2703
     17 C         143.3481  142.1640  169.3001 C.3     1  UNL1        0.0897
@<TRIPOS>BOND
     1    15    16    1
     2    16    17    1
     3    16    14    1
     4    14    13    1
     5    13    12    1
     6    12    11    1
     7    11     1    1
     8     1     2   ar
     9     2     3   ar
    10     3     4   ar
    11     4     7    1
    12     7     8    1
    13     7     9    1
    14     7    10    1
    15     4     5   ar
    16     5     6   ar
    17     6     1   ar
@<TRIPOS>MOLECULE
*****
 17 17 0 0 0
SMALL
GASTEIGER

@<TRIPOS>ATOM
      1 C         142.7457  142.7415  165.4230 C.ar    1  UNL1       -0.0222
      2 C         141.2645  142.9749  165.3866 C.ar    1  UNL1       -0.0046
      3 C         140.4443  142.7831  166.6278 C.ar    1  UNL1       -0.0046
      4 C         141.1054  142.3580  167.9054 C.ar    1  UNL1       -0.0228
      5 C         142.5866  142.1246  167.9417 C.ar    1  UNL1       -0.0046
      6 C         143.4068  142.3164  166.7005 C.ar    1  UNL1       -0.0046
      7 C         140.2852  142.1662  169.1465 C.3     1  UNL1        0.0189
      8 C         140.5213  143.5987  169.5238 C.3     1  UNL1        0.0044
      9 C         140.0491  140.7338  168.7692 C.3     1  UNL1        0.0044
     10 C         139.4650  141.9745  170.3877 C.3     1  UNL1        0.0044
     11 C         143.5659  142.9332  164.1818 C.3     1  UNL1        0.0264
     12 C         145.0152  142.5469  164.1735 C.3     1  UNL1        0.0061
     13 C         145.4437  141.2558  163.5415 C.3     1  UNL1        0.0177
     14 C         145.1093  139.9507  164.2011 C.3     1  UNL1        0.0722
     15 C         142.7449  139.0424  164.7795 C.3     1  UNL1        0.0897
     16 N         143.8710  139.2042  163.8019 N.3     1  UNL1       -0.2703
     17 C         143.7588  138.6195  162.4251 C.3     1  UNL1        0.0897
@<TRIPOS>BOND
     1    15    16    1
     2    16    17    1
     3    16    14    1
     4    14    13    1
     5    13    12    1
     6    12    11    1
     7    11     1    1
     8     1     2   ar
     9     2     3   ar
    10     3     4   ar
    11     4     7    1
    12     7     8    1
    13     7     9    1
    14     7    10    1
    15     4     5   ar
    16     5     6   ar
    17     6     1   ar
@<TRIPOS>MOLECULE
*****
 17 17 0 0 0
SMALL
GASTEIGER

@<TRIPOS>ATOM
      1 C         141.7330  140.3708  166.6694 C.ar    1  UNL1       -0.0222
      2 C         140.3470  139.8839  166.3666 C.ar    1  UNL1       -0.0046
      3 C         139.3430  140.8136  165.7519 C.ar    1  UNL1       -0.0046
      4 C         139.7252  142.2302  165.4400 C.ar    1  UNL1       -0.0228
      5 C         141.1113  142.7170  165.7428 C.ar    1  UNL1       -0.0046
      6 C         142.1152  141.7873  166.3575 C.ar    1  UNL1       -0.0046
      7 C         138.7213  143.1598  164.8254 C.3     1  UNL1        0.0189
      8 C         137.9035  141.9833  164.3815 C.3     1  UNL1        0.0044
      9 C         139.5390  144.3364  165.2692 C.3     1  UNL1        0.0044
     10 C         137.7173  144.0895  164.2107 C.3     1  UNL1        0.0044
     11 C         142.7370  139.4411  167.2840 C.3     1  UNL1        0.0264
     12 C         143.5519  138.5338  166.4109 C.3     1  UNL1        0.0061
     13 C         143.6791  138.8198  164.9439 C.3     1  UNL1        0.0177
     14 C         144.9835  139.3058  164.3848 C.3     1  UNL1        0.0722
     15 C         144.4040  140.3155  162.0622 C.3     1  UNL1        0.0897
     16 N         145.0056  140.4612  163.4285 N.3     1  UNL1       -0.2703
     17 C         145.6295  141.7623  163.8384 C.3     1  UNL1        0.0897
@<TRIPOS>BOND
     1    15    16    1
     2    16    17    1
     3    16    14    1
     4    14    13    1
     5    13    12    1
     6    12    11    1
     7    11     1    1
     8     1     2   ar
     9     2     3   ar
    10     3     4   ar
    11     4     7    1
    12     7     8    1
    13     7     9    1
    14     7    10    1
    15     4     5   ar
    16     5     6   ar
    17     6     1   ar
@<TRIPOS>MOLECULE
*****
 17 17 0 0 0
SMALL
GASTEIGER

@<TRIPOS>ATOM
      1 C         139.9921  138.4970  165.3241 C.ar    1  UNL1       -0.0222
      2 C         138.7235  138.7062  166.0966 C.ar    1  UNL1       -0.0046
      3 C         138.7094  139.6274  167.2803 C.ar    1  UNL1       -0.0046
      4 C         139.9639  140.3395  167.6914 C.ar    1  UNL1       -0.0228
      5 C         141.2325  140.1304  166.9189 C.ar    1  UNL1       -0.0046
      6 C         141.2466  139.2091  165.7352 C.ar    1  UNL1       -0.0046
      7 C         139.9498  141.2608  168.8751 C.3     1  UNL1        0.0189
      8 C         139.1804  140.2402  169.6603 C.3     1  UNL1        0.0044
      9 C         140.7193  142.2813  168.0900 C.3     1  UNL1        0.0044
     10 C         139.9357  142.1820  170.0588 C.3     1  UNL1        0.0044
     11 C         140.0061  137.5758  164.1404 C.3     1  UNL1        0.0264
     12 C         138.8307  137.5327  163.2096 C.3     1  UNL1        0.0061
     13 C         138.9245  138.1664  161.8532 C.3     1  UNL1        0.0177
     14 C         138.2356  139.4718  161.5861 C.3     1  UNL1        0.0722
     15 C         139.9277  141.1215  162.6657 C.3     1  UNL1        0.0897
     16 N         138.5157  140.6598  162.4581 N.3     1  UNL1       -0.2703
     17 C         137.3838  141.3861  163.1224 C.3     1  UNL1        0.0897
@<TRIPOS>BOND
     1    15    16    1
     2    16    17    1
     3    16    14    1
     4    14    13    1
     5    13    12    1
     6    12    11    1
     7    11     1    1
     8     1     2   ar
     9     2     3   ar
    10     3     4   ar
    11     4     7    1
    12     7     8    1
    13     7     9    1
    14     7    10    1
    15     4     5   ar
    16     5     6   ar
    17     6     1   ar
@<TRIPOS>MOLECULE
*****
 17 17 0 0 0
SMALL
GASTEIGER

@<TRIPOS>ATOM
      1 C         141.6018  139.0574  166.0907 C.ar    1  UNL1       -0.0222
      2 C         142.5848  139.6256  167.0708 C.ar    1  UNL1       -0.0046
      3 C         142.1099  140.5243  168.1739 C.ar    1  UNL1       -0.0046
      4 C         140.6520  140.8547  168.2969 C.ar    1  UNL1       -0.0228
      5 C         139.6689  140.2865  167.3168 C.ar    1  UNL1       -0.0046
      6 C         140.1438  139.3878  166.2137 C.ar    1  UNL1       -0.0046
      7 C         140.1770  141.7534  169.4000 C.3     1  UNL1        0.0189
      8 C         141.1032  142.8315  168.9205 C.3     1  UNL1        0.0044
      9 C         139.2509  140.6753  169.8795 C.3     1  UNL1        0.0044
     10 C         139.7021  142.6521  170.5031 C.3     1  UNL1        0.0044
     11 C         142.0767  138.1587  164.9876 C.3     1  UNL1        0.0264
     12 C         141.1520  137.1298  164.4078 C.3     1  UNL1        0.0061
     13 C         140.4757  137.3848  163.0934 C.3     1  UNL1        0.0177
     14 C         140.6724  138.6954  162.3906 C.3     1  UNL1        0.0722
     15 C         138.2620  139.6311  162.6443 C.3     1  UNL1        0.0897
     16 N         139.7468  139.8423  162.6696 N.3     1  UNL1       -0.2703
     17 C         140.3062  141.2005  162.9739 C.3     1  UNL1        0.0897
@<TRIPOS>BOND
     1    15    16    1
     2    16    17    1
     3    16    14    1
     4    14    13    1
     5    13    12    1
     6    12    11    1
     7    11     1    1
     8     1     2   ar
     9     2     3   ar
    10     3     4   ar
    11     4     7    1
    12     7     8    1
    13     7     9    1
    14     7    10    1
    15     4     5   ar
    16     5     6   ar
    17     6     1   ar
