@<TRIPOS>MOLECULE
*****
 31 34 0 0 0
SMALL
GASTEIGER

@<TRIPOS>ATOM
      1 C         141.7420  139.7902  165.9414 C.3     1  UNL1        0.0179
      2 C         142.0132  141.1372  165.3397 C.3     1  UNL1        0.0229
      3 C         140.9840  141.7882  164.4639 C.3     1  UNL1        0.0938
      4 N         139.6838  141.0923  164.1898 N.am    1  UNL1       -0.2748
      5 C         138.6547  141.7434  163.3139 C.2     1  UNL1        0.2669
      6 O         137.3546  141.0474  163.0399 O.2     1  UNL1       -0.2683
      7 C         139.4127  139.7453  164.7915 C.3     1  UNL1        0.0938
      8 C         140.4418  139.0943  165.6673 C.3     1  UNL1        0.0229
      9 C         138.9258  143.0904  162.7122 C.ar    1  UNL1        0.1397
     10 C         138.3130  144.3891  163.1456 C.ar    1  UNL1        0.1242
     11 N         138.8658  145.4765  162.2727 N.ar    1  UNL1       -0.2079
     12 C         139.8203  144.8498  161.2998 C.ar    1  UNL1        0.2371
     13 N         140.6603  145.4315  160.2017 N.ar    1  UNL1       -0.2095
     14 C         141.5375  144.5385  159.3753 C.ar    1  UNL1        0.1036
     15 C         141.5746  143.0638  159.6470 C.ar    1  UNL1        0.0398
     16 C         140.7345  142.4821  160.7451 C.ar    1  UNL1        0.0846
     17 N         139.8573  143.3751  161.5715 N.ar    1  UNL1       -0.2696
     18 N         143.9151  138.3900  166.2006 N.3     1  UNL1       -0.3219
     19 C         142.7711  139.1391  166.8172 C.3     1  UNL1        0.0553
     20 H         144.5128  138.0155  166.9375 H       1  UNL1        0.1188
     21 H         144.4572  139.0220  165.6115 H       1  UNL1        0.1188
     22 C         142.6563  139.2371  168.3096 C.3     1  UNL1        0.0442
     23 C         141.8097  140.3099  168.9279 C.ar    1  UNL1        0.0090
     24 C         140.3918  140.0146  169.3181 C.ar    1  UNL1        0.0300
     25 C         139.5451  141.0874  169.9364 C.ar    1  UNL1        0.1672
     26 F         138.1271  140.7921  170.3267 F       1  UNL1       -0.2018
     27 C         140.1164  142.4554  170.1644 C.ar    1  UNL1        0.1696
     28 F         139.2698  143.5282  170.7827 F       1  UNL1       -0.2017
     29 C         141.5343  142.7507  169.7742 C.ar    1  UNL1        0.0612
     30 C         142.3810  141.6780  169.1559 C.ar    1  UNL1        0.1386
     31 F         143.7989  141.9733  168.7657 F       1  UNL1       -0.2044
@<TRIPOS>BOND
     1    19    18    1
     2    19    22    1
     3    22    23    1
     4    23    24   ar
     5    24    25   ar
     6    25    26    1
     7    25    27   ar
     8    27    28    1
     9    27    29   ar
    10    29    30   ar
    11    30    31    1
    12    19     1    1
    13     1     2    1
    14     2     3    1
    15     3     4    1
    16     4     5   am
    17     5     6    2
    18     5     9    1
    19     9    10   ar
    20    10    11   ar
    21    11    12   ar
    22    12    13   ar
    23    13    14   ar
    24    14    15   ar
    25    15    16   ar
    26    16    17   ar
    27     4     7    1
    28     7     8    1
    29    30    23   ar
    30     8     1    1
    31    17     9   ar
    32    17    12   ar
    33    18    20    1
    34    18    21    1
@<TRIPOS>MOLECULE
*****
 31 34 0 0 0
SMALL
GASTEIGER

@<TRIPOS>ATOM
      1 C         142.6467  140.7746  165.4006 C.3     1  UNL1        0.0179
      2 C         141.4897  141.1246  164.5124 C.3     1  UNL1        0.0229
      3 C         141.5521  142.3480  163.6468 C.3     1  UNL1        0.0938
      4 N         142.7714  143.2214  163.6693 N.am    1  UNL1       -0.2748
      5 C         142.8337  144.4449  162.8036 C.2     1  UNL1        0.2669
      6 O         144.0530  145.3182  162.8262 O.2     1  UNL1       -0.2683
      7 C         143.9284  142.8714  164.5575 C.3     1  UNL1        0.0938
      8 C         143.8660  141.6480  165.4231 C.3     1  UNL1        0.0229
      9 C         141.6767  144.7949  161.9154 C.ar    1  UNL1        0.1397
     10 C         140.5366  145.7030  162.2695 C.ar    1  UNL1        0.1242
     11 N         139.6120  145.7676  161.0901 N.ar    1  UNL1       -0.2079
     12 C         140.1807  144.8994  160.0071 C.ar    1  UNL1        0.2371
     13 N         139.7015  144.5786  158.6225 N.ar    1  UNL1       -0.2095
     14 C         140.4984  143.6566  157.7479 C.ar    1  UNL1        0.1036
     15 C         141.7744  143.0554  158.2580 C.ar    1  UNL1        0.0398
     16 C         142.2537  143.3762  159.6427 C.ar    1  UNL1        0.0846
     17 N         141.4568  144.2982  160.5172 N.ar    1  UNL1       -0.2696
     18 N         142.3241  138.2087  165.6497 N.3     1  UNL1       -0.3219
     19 C         142.5844  139.5512  166.2662 C.3     1  UNL1        0.0553
     20 H         142.3153  137.4956  166.3790 H       1  UNL1        0.1188
     21 H         143.0590  137.9961  164.9751 H       1  UNL1        0.1188
     22 C         142.7824  139.6701  167.7483 C.3     1  UNL1        0.0442
     23 C         141.8832  140.5581  168.5563 C.ar    1  UNL1        0.0090
     24 C         140.5199  140.0787  168.9581 C.ar    1  UNL1        0.0300
     25 C         139.6206  140.9667  169.7660 C.ar    1  UNL1        0.1672
     26 F         138.2572  140.4873  170.1679 F       1  UNL1       -0.2018
     27 C         140.0846  142.3340  170.1721 C.ar    1  UNL1        0.1696
     28 F         139.1854  143.2220  170.9801 F       1  UNL1       -0.2017
     29 C         141.4480  142.8134  169.7703 C.ar    1  UNL1        0.0612
     30 C         142.3473  141.9255  168.9624 C.ar    1  UNL1        0.1386
     31 F         143.7106  142.4049  168.5606 F       1  UNL1       -0.2044
@<TRIPOS>BOND
     1    19    18    1
     2    19    22    1
     3    22    23    1
     4    23    24   ar
     5    24    25   ar
     6    25    26    1
     7    25    27   ar
     8    27    28    1
     9    27    29   ar
    10    29    30   ar
    11    30    31    1
    12    19     1    1
    13     1     2    1
    14     2     3    1
    15     3     4    1
    16     4     5   am
    17     5     6    2
    18     5     9    1
    19     9    10   ar
    20    10    11   ar
    21    11    12   ar
    22    12    13   ar
    23    13    14   ar
    24    14    15   ar
    25    15    16   ar
    26    16    17   ar
    27     4     7    1
    28     7     8    1
    29    30    23   ar
    30     8     1    1
    31    17     9   ar
    32    17    12   ar
    33    18    20    1
    34    18    21    1
@<TRIPOS>MOLECULE
*****
 31 34 0 0 0
SMALL
GASTEIGER

@<TRIPOS>ATOM
      1 C         140.2452  139.9704  166.6187 C.3     1  UNL1        0.0179
      2 C         140.1490  141.2181  165.7916 C.3     1  UNL1        0.0229
      3 C         141.2710  141.5953  164.8703 C.3     1  UNL1        0.0938
      4 N         142.4890  140.7250  164.7760 N.am    1  UNL1       -0.2748
      5 C         143.6110  141.1024  163.8546 C.2     1  UNL1        0.2669
      6 O         144.8289  140.2321  163.7604 O.2     1  UNL1       -0.2683
      7 C         142.5852  139.4773  165.6031 C.3     1  UNL1        0.0938
      8 C         141.4632  139.1001  166.5245 C.3     1  UNL1        0.0229
      9 C         143.5148  142.3501  163.0275 C.ar    1  UNL1        0.1397
     10 C         144.1480  143.6715  163.3483 C.ar    1  UNL1        0.1242
     11 N         143.7931  144.6334  162.2534 N.ar    1  UNL1       -0.2079
     12 C         142.9405  143.9065  161.2560 C.ar    1  UNL1        0.2371
     13 N         142.2986  144.3473  159.9740 N.ar    1  UNL1       -0.2095
     14 C         141.4847  143.3769  159.1705 C.ar    1  UNL1        0.1036
     15 C         141.3127  141.9657  159.6489 C.ar    1  UNL1        0.0398
     16 C         141.9546  141.5249  160.9309 C.ar    1  UNL1        0.0846
     17 N         142.7685  142.4953  161.7345 N.ar    1  UNL1       -0.2696
     18 N         137.9293  138.8585  167.0064 N.3     1  UNL1       -0.3219
     19 C         139.1233  139.5930  167.5401 C.3     1  UNL1        0.0553
     20 H         137.2701  138.6845  167.7651 H       1  UNL1        0.1188
     21 H         138.2283  137.9696  166.6053 H       1  UNL1        0.1188
     22 C         139.1953  139.9502  168.9952 C.3     1  UNL1        0.0442
     23 C         140.2481  140.9008  169.4829 C.ar    1  UNL1        0.0090
     24 C         139.9681  142.3739  169.5223 C.ar    1  UNL1        0.0300
     25 C         141.0208  143.3247  170.0100 C.ar    1  UNL1        0.1672
     26 F         140.7410  144.7978  170.0494 F       1  UNL1       -0.2018
     27 C         142.3535  142.8023  170.4583 C.ar    1  UNL1        0.1696
     28 F         143.4063  143.7529  170.9461 F       1  UNL1       -0.2017
     29 C         142.6335  141.3291  170.4190 C.ar    1  UNL1        0.0612
     30 C         141.5808  140.3784  169.9313 C.ar    1  UNL1        0.1386
     31 F         141.8607  138.9053  169.8919 F       1  UNL1       -0.2044
@<TRIPOS>BOND
     1    19    18    1
     2    19    22    1
     3    22    23    1
     4    23    24   ar
     5    24    25   ar
     6    25    26    1
     7    25    27   ar
     8    27    28    1
     9    27    29   ar
    10    29    30   ar
    11    30    31    1
    12    19     1    1
    13     1     2    1
    14     2     3    1
    15     3     4    1
    16     4     5   am
    17     5     6    2
    18     5     9    1
    19     9    10   ar
    20    10    11   ar
    21    11    12   ar
    22    12    13   ar
    23    13    14   ar
    24    14    15   ar
    25    15    16   ar
    26    16    17   ar
    27     4     7    1
    28     7     8    1
    29    30    23   ar
    30     8     1    1
    31    17     9   ar
    32    17    12   ar
    33    18    20    1
    34    18    21    1
@<TRIPOS>MOLECULE
*****
 31 34 0 0 0
SMALL
GASTEIGER

@<TRIPOS>ATOM
      1 C         139.6930  143.3782  163.7365 C.3     1  UNL1        0.0179
      2 C         139.7392  143.5221  165.2289 C.3     1  UNL1        0.0229
      3 C         139.6309  142.3080  166.1030 C.3     1  UNL1        0.0938
      4 N         139.4764  140.9500  165.4849 N.am    1  UNL1       -0.2748
      5 C         139.3681  139.7359  166.3591 C.2     1  UNL1        0.2669
      6 O         139.2136  138.3780  165.7410 O.2     1  UNL1       -0.2683
      7 C         139.4302  140.8062  163.9925 C.3     1  UNL1        0.0938
      8 C         139.5385  142.0203  163.1184 C.3     1  UNL1        0.0229
      9 C         139.4142  139.8797  167.8515 C.ar    1  UNL1        0.1397
     10 C         138.2713  139.6495  168.7953 C.ar    1  UNL1        0.1242
     11 N         138.7622  139.9066  170.1891 N.ar    1  UNL1       -0.2079
     12 C         140.2086  140.2957  170.1069 C.ar    1  UNL1        0.2371
     13 N         141.2106  140.6629  171.1608 N.ar    1  UNL1       -0.2095
     14 C         142.6157  141.0136  170.7700 C.ar    1  UNL1        0.1036
     15 C         143.0187  140.9970  169.3253 C.ar    1  UNL1        0.0398
     16 C         142.0166  140.6297  168.2713 C.ar    1  UNL1        0.0846
     17 N         140.6115  140.2791  168.6621 N.ar    1  UNL1       -0.2696
     18 N         138.5653  145.2055  162.2739 N.3     1  UNL1       -0.3219
     19 C         139.8013  144.5923  162.8623 C.3     1  UNL1        0.0553
     20 H         138.8228  146.0163  161.7112 H       1  UNL1        0.1188
     21 H         137.9401  145.4976  163.0250 H       1  UNL1        0.1188
     22 C         141.1456  145.1932  162.5764 C.3     1  UNL1        0.0442
     23 C         142.3915  144.3945  162.8206 C.ar    1  UNL1        0.0090
     24 C         143.1186  144.5195  164.1266 C.ar    1  UNL1        0.0300
     25 C         144.3645  143.7207  164.3709 C.ar    1  UNL1        0.1672
     26 F         145.0917  143.8457  165.6769 F       1  UNL1       -0.2018
     27 C         144.8833  142.7969  163.3091 C.ar    1  UNL1        0.1696
     28 F         146.1292  141.9981  163.5533 F       1  UNL1       -0.2017
     29 C         144.1562  142.6719  162.0031 C.ar    1  UNL1        0.0612
     30 C         142.9103  143.4706  161.7588 C.ar    1  UNL1        0.1386
     31 F         142.1832  143.3456  160.4528 F       1  UNL1       -0.2044
@<TRIPOS>BOND
     1    19    18    1
     2    19    22    1
     3    22    23    1
     4    23    24   ar
     5    24    25   ar
     6    25    26    1
     7    25    27   ar
     8    27    28    1
     9    27    29   ar
    10    29    30   ar
    11    30    31    1
    12    19     1    1
    13     1     2    1
    14     2     3    1
    15     3     4    1
    16     4     5   am
    17     5     6    2
    18     5     9    1
    19     9    10   ar
    20    10    11   ar
    21    11    12   ar
    22    12    13   ar
    23    13    14   ar
    24    14    15   ar
    25    15    16   ar
    26    16    17   ar
    27     4     7    1
    28     7     8    1
    29    30    23   ar
    30     8     1    1
    31    17     9   ar
    32    17    12   ar
    33    18    20    1
    34    18    21    1
@<TRIPOS>MOLECULE
*****
 31 34 0 0 0
SMALL
GASTEIGER

@<TRIPOS>ATOM
      1 C         139.5545  141.8742  161.3886 C.3     1  UNL1        0.0179
      2 C         138.9330  142.0883  162.7369 C.3     1  UNL1        0.0229
      3 C         139.0761  141.0430  163.8031 C.3     1  UNL1        0.0938
      4 N         139.8406  139.7836  163.5210 N.am    1  UNL1       -0.2748
      5 C         139.9836  138.7383  164.5874 C.2     1  UNL1        0.2669
      6 O         140.7481  137.4790  164.3052 O.2     1  UNL1       -0.2683
      7 C         140.4621  139.5696  162.1727 C.3     1  UNL1        0.0938
      8 C         140.3190  140.6149  161.1066 C.3     1  UNL1        0.0229
      9 C         139.3621  138.9523  165.9357 C.ar    1  UNL1        0.1397
     10 C         138.0923  138.3258  166.4307 C.ar    1  UNL1        0.1242
     11 N         137.8468  138.8168  167.8266 N.ar    1  UNL1       -0.2079
     12 C         138.9648  139.7467  168.1943 C.ar    1  UNL1        0.2371
     13 N         139.2511  140.5280  169.4424 N.ar    1  UNL1       -0.2095
     14 C         140.4739  141.3931  169.5217 C.ar    1  UNL1        0.1036
     15 C         141.4105  141.4768  168.3530 C.ar    1  UNL1        0.0398
     16 C         141.1242  140.6955  167.1050 C.ar    1  UNL1        0.0846
     17 N         139.9014  139.8305  167.0257 N.ar    1  UNL1       -0.2696
     18 N         138.2500  142.8700  159.3745 N.3     1  UNL1       -0.3219
     19 C         139.4115  142.9195  160.3224 C.3     1  UNL1        0.0553
     20 H         138.3107  143.6509  158.7212 H       1  UNL1        0.1188
     21 H         137.3786  142.9341  159.9009 H       1  UNL1        0.1188
     22 C         140.4300  144.0144  160.2039 C.3     1  UNL1        0.0442
     23 C         141.3619  144.2985  161.3443 C.ar    1  UNL1        0.0090
     24 C         142.7317  143.6874  161.3636 C.ar    1  UNL1        0.0300
     25 C         143.6637  143.9714  162.5040 C.ar    1  UNL1        0.1672
     26 F         145.0335  143.3603  162.5233 F       1  UNL1       -0.2018
     27 C         143.2259  144.8665  163.6253 C.ar    1  UNL1        0.1696
     28 F         144.1579  145.1505  164.7658 F       1  UNL1       -0.2017
     29 C         141.8562  145.4775  163.6061 C.ar    1  UNL1        0.0612
     30 C         140.9241  145.1935  162.4656 C.ar    1  UNL1        0.1386
     31 F         139.5544  145.8046  162.4464 F       1  UNL1       -0.2044
@<TRIPOS>BOND
     1    19    18    1
     2    19    22    1
     3    22    23    1
     4    23    24   ar
     5    24    25   ar
     6    25    26    1
     7    25    27   ar
     8    27    28    1
     9    27    29   ar
    10    29    30   ar
    11    30    31    1
    12    19     1    1
    13     1     2    1
    14     2     3    1
    15     3     4    1
    16     4     5   am
    17     5     6    2
    18     5     9    1
    19     9    10   ar
    20    10    11   ar
    21    11    12   ar
    22    12    13   ar
    23    13    14   ar
    24    14    15   ar
    25    15    16   ar
    26    16    17   ar
    27     4     7    1
    28     7     8    1
    29    30    23   ar
    30     8     1    1
    31    17     9   ar
    32    17    12   ar
    33    18    20    1
    34    18    21    1
@<TRIPOS>MOLECULE
*****
 31 34 0 0 0
SMALL
GASTEIGER

@<TRIPOS>ATOM
      1 C         141.0313  142.1393  166.3555 C.3     1  UNL1        0.0179
      2 C         140.0465  142.6027  165.3233 C.3     1  UNL1        0.0229
      3 C         140.5182  143.3901  164.1370 C.3     1  UNL1        0.0938
      4 N         141.9747  143.7140  163.9827 N.am    1  UNL1       -0.2748
      5 C         142.4463  144.5014  162.7962 C.2     1  UNL1        0.2669
      6 O         143.9027  144.8253  162.6420 O.2     1  UNL1       -0.2683
      7 C         142.9595  143.2505  165.0149 C.3     1  UNL1        0.0938
      8 C         142.4878  142.4632  166.2013 C.3     1  UNL1        0.0229
      9 C         141.4615  144.9648  161.7641 C.ar    1  UNL1        0.1397
     10 C         140.3205  145.9105  161.9961 C.ar    1  UNL1        0.1242
     11 N         139.5987  146.0941  160.6940 N.ar    1  UNL1       -0.2079
     12 C         140.2935  145.2619  159.6574 C.ar    1  UNL1        0.2371
     13 N         140.0266  145.0495  158.1967 N.ar    1  UNL1       -0.2095
     14 C         140.9111  144.1391  157.3974 C.ar    1  UNL1        0.1036
     15 C         142.0624  143.4412  158.0587 C.ar    1  UNL1        0.0398
     16 C         142.3293  143.6536  159.5194 C.ar    1  UNL1        0.0846
     17 N         141.4449  144.5640  160.3187 N.ar    1  UNL1       -0.2696
     18 N         140.3073  142.0436  168.8488 N.3     1  UNL1       -0.3219
     19 C         140.5597  141.3519  167.5419 C.3     1  UNL1        0.0553
     20 H         139.9944  141.3615  169.5396 H       1  UNL1        0.1188
     21 H         139.5875  142.7553  168.7234 H       1  UNL1        0.1188
     22 C         140.3404  139.8729  167.4216 C.3     1  UNL1        0.0442
     23 C         140.2214  139.2402  166.0668 C.ar    1  UNL1        0.0090
     24 C         141.4542  138.8038  165.3320 C.ar    1  UNL1        0.0300
     25 C         141.3354  138.1710  163.9773 C.ar    1  UNL1        0.1672
     26 F         142.5681  137.7347  163.2424 F       1  UNL1       -0.2018
     27 C         139.9837  137.9746  163.3572 C.ar    1  UNL1        0.1696
     28 F         139.8648  137.3419  162.0025 F       1  UNL1       -0.2017
     29 C         138.7509  138.4110  164.0920 C.ar    1  UNL1        0.0612
     30 C         138.8698  139.0437  165.4468 C.ar    1  UNL1        0.1386
     31 F         137.6370  139.4801  166.1815 F       1  UNL1       -0.2044
@<TRIPOS>BOND
     1    19    18    1
     2    19    22    1
     3    22    23    1
     4    23    24   ar
     5    24    25   ar
     6    25    26    1
     7    25    27   ar
     8    27    28    1
     9    27    29   ar
    10    29    30   ar
    11    30    31    1
    12    19     1    1
    13     1     2    1
    14     2     3    1
    15     3     4    1
    16     4     5   am
    17     5     6    2
    18     5     9    1
    19     9    10   ar
    20    10    11   ar
    21    11    12   ar
    22    12    13   ar
    23    13    14   ar
    24    14    15   ar
    25    15    16   ar
    26    16    17   ar
    27     4     7    1
    28     7     8    1
    29    30    23   ar
    30     8     1    1
    31    17     9   ar
    32    17    12   ar
    33    18    20    1
    34    18    21    1
@<TRIPOS>MOLECULE
*****
 31 34 0 0 0
SMALL
GASTEIGER

@<TRIPOS>ATOM
      1 C         141.6625  142.4636  165.7246 C.3     1  UNL1        0.0179
      2 C         142.2144  142.4211  164.3305 C.3     1  UNL1        0.0229
      3 C         141.4512  143.0493  163.2023 C.3     1  UNL1        0.0938
      4 N         140.1362  143.7200  163.4681 N.am    1  UNL1       -0.2748
      5 C         139.3730  144.3482  162.3398 C.2     1  UNL1        0.2669
      6 O         138.0579  145.0189  162.6057 O.2     1  UNL1       -0.2683
      7 C         139.5842  143.7625  164.8622 C.3     1  UNL1        0.0938
      8 C         140.3474  143.1343  165.9904 C.3     1  UNL1        0.0229
      9 C         139.9249  144.3057  160.9457 C.ar    1  UNL1        0.1397
     10 C         140.9360  145.2516  160.3685 C.ar    1  UNL1        0.1242
     11 N         141.1986  144.8403  158.9501 N.ar    1  UNL1       -0.2079
     12 C         140.3500  143.6403  158.6507 C.ar    1  UNL1        0.2371
     13 N         140.1923  142.8057  157.4143 N.ar    1  UNL1       -0.2095
     14 C         139.2474  141.6408  157.4113 C.ar    1  UNL1        0.1036
     15 C         138.4602  141.3104  158.6447 C.ar    1  UNL1        0.0398
     16 C         138.6179  142.1449  159.8810 C.ar    1  UNL1        0.0846
     17 N         139.5628  143.3099  159.8840 N.ar    1  UNL1       -0.2696
     18 N         143.4205  142.6467  167.6286 N.3     1  UNL1       -0.3219
     19 C         142.4256  141.8354  166.8528 C.3     1  UNL1        0.0553
     20 H         143.8427  142.0652  168.3526 H       1  UNL1        0.1188
     21 H         142.9482  143.4400  168.0622 H       1  UNL1        0.1188
     22 C         142.1938  140.3959  167.2054 C.3     1  UNL1        0.0442
     23 C         141.2727  139.5579  166.3692 C.ar    1  UNL1        0.0090
     24 C         141.8289  138.6970  165.2740 C.ar    1  UNL1        0.0300
     25 C         140.9078  137.8590  164.4378 C.ar    1  UNL1        0.1672
     26 F         141.4639  136.9980  163.3425 F       1  UNL1       -0.2018
     27 C         139.4305  137.8818  164.6968 C.ar    1  UNL1        0.1696
     28 F         138.5094  137.0438  163.8606 F       1  UNL1       -0.2017
     29 C         138.8743  138.7427  165.7920 C.ar    1  UNL1        0.0612
     30 C         139.7954  139.5807  166.6282 C.ar    1  UNL1        0.1386
     31 F         139.2392  140.4416  167.7234 F       1  UNL1       -0.2044
@<TRIPOS>BOND
     1    19    18    1
     2    19    22    1
     3    22    23    1
     4    23    24   ar
     5    24    25   ar
     6    25    26    1
     7    25    27   ar
     8    27    28    1
     9    27    29   ar
    10    29    30   ar
    11    30    31    1
    12    19     1    1
    13     1     2    1
    14     2     3    1
    15     3     4    1
    16     4     5   am
    17     5     6    2
    18     5     9    1
    19     9    10   ar
    20    10    11   ar
    21    11    12   ar
    22    12    13   ar
    23    13    14   ar
    24    14    15   ar
    25    15    16   ar
    26    16    17   ar
    27     4     7    1
    28     7     8    1
    29    30    23   ar
    30     8     1    1
    31    17     9   ar
    32    17    12   ar
    33    18    20    1
    34    18    21    1
@<TRIPOS>MOLECULE
*****
 31 34 0 0 0
SMALL
GASTEIGER

@<TRIPOS>ATOM
      1 C         142.9854  142.0640  165.6438 C.3     1  UNL1        0.0179
      2 C         141.7016  142.4578  164.9754 C.3     1  UNL1        0.0229
      3 C         141.7027  142.8704  163.5333 C.3     1  UNL1        0.0938
      4 N         142.9876  142.8892  162.7596 N.am    1  UNL1       -0.2748
      5 C         142.9887  143.3018  161.3174 C.2     1  UNL1        0.2669
      6 O         144.2736  143.3206  160.5437 O.2     1  UNL1       -0.2683
      7 C         144.2715  142.4954  163.4280 C.3     1  UNL1        0.0938
      8 C         144.2703  142.0828  164.8701 C.3     1  UNL1        0.0229
      9 C         141.7049  143.6956  160.6490 C.ar    1  UNL1        0.1397
     10 C         141.2096  145.0970  160.4474 C.ar    1  UNL1        0.1242
     11 N         139.8895  145.0246  159.7387 N.ar    1  UNL1       -0.2079
     12 C         139.5690  143.5784  159.5022 C.ar    1  UNL1        0.2371
     13 N         138.4006  142.9034  158.8474 N.ar    1  UNL1       -0.2095
     14 C         138.3540  141.4070  158.7551 C.ar    1  UNL1        0.1036
     15 C         139.4760  140.5856  159.3177 C.ar    1  UNL1        0.0398
     16 C         140.6445  141.2606  159.9726 C.ar    1  UNL1        0.0846
     17 N         140.6910  142.7570  160.0649 N.ar    1  UNL1       -0.2696
     18 N         143.3862  142.6326  168.1470 N.3     1  UNL1       -0.3219
     19 C         142.9844  141.6514  167.0859 C.3     1  UNL1        0.0553
     20 H         143.3278  142.1863  169.0624 H       1  UNL1        0.1188
     21 H         142.7602  143.4374  168.1205 H       1  UNL1        0.1188
     22 C         142.5815  140.2577  167.4671 C.3     1  UNL1        0.0442
     23 C         141.5631  139.5210  166.6485 C.ar    1  UNL1        0.0090
     24 C         142.0059  138.5041  165.6387 C.ar    1  UNL1        0.0300
     25 C         140.9876  137.7673  164.8200 C.ar    1  UNL1        0.1672
     26 F         141.4303  136.7503  163.8101 F       1  UNL1       -0.2018
     27 C         139.5264  138.0476  165.0112 C.ar    1  UNL1        0.1696
     28 F         138.5081  137.3109  164.1926 F       1  UNL1       -0.2017
     29 C         139.0836  139.0645  166.0210 C.ar    1  UNL1        0.0612
     30 C         140.1020  139.8013  166.8396 C.ar    1  UNL1        0.1386
     31 F         139.6592  140.8182  167.8495 F       1  UNL1       -0.2044
@<TRIPOS>BOND
     1    19    18    1
     2    19    22    1
     3    22    23    1
     4    23    24   ar
     5    24    25   ar
     6    25    26    1
     7    25    27   ar
     8    27    28    1
     9    27    29   ar
    10    29    30   ar
    11    30    31    1
    12    19     1    1
    13     1     2    1
    14     2     3    1
    15     3     4    1
    16     4     5   am
    17     5     6    2
    18     5     9    1
    19     9    10   ar
    20    10    11   ar
    21    11    12   ar
    22    12    13   ar
    23    13    14   ar
    24    14    15   ar
    25    15    16   ar
    26    16    17   ar
    27     4     7    1
    28     7     8    1
    29    30    23   ar
    30     8     1    1
    31    17     9   ar
    32    17    12   ar
    33    18    20    1
    34    18    21    1
@<TRIPOS>MOLECULE
*****
 31 34 0 0 0
SMALL
GASTEIGER

@<TRIPOS>ATOM
      1 C         143.7971  141.8601  162.9165 C.3     1  UNL1        0.0179
      2 C         143.3153  141.5544  161.5293 C.3     1  UNL1        0.0229
      3 C         142.0968  142.2429  160.9899 C.3     1  UNL1        0.0938
      4 N         141.3600  143.2371  161.8376 N.am    1  UNL1       -0.2748
      5 C         140.1414  143.9257  161.2981 C.2     1  UNL1        0.2669
      6 O         139.4047  144.9199  162.1459 O.2     1  UNL1       -0.2683
      7 C         141.8418  143.5429  163.2249 C.3     1  UNL1        0.0938
      8 C         143.0604  142.8543  163.7642 C.3     1  UNL1        0.0229
      9 C         139.6596  143.6200  159.9109 C.ar    1  UNL1        0.1397
     10 C         138.6600  142.5659  159.5370 C.ar    1  UNL1        0.1242
     11 N         138.4754  142.6092  158.0491 N.ar    1  UNL1       -0.2079
     12 C         139.3609  143.6899  157.5033 C.ar    1  UNL1        0.2371
     13 N         139.5954  144.1859  156.1073 N.ar    1  UNL1       -0.2095
     14 C         140.5617  145.3066  155.8619 C.ar    1  UNL1        0.1036
     15 C         141.2936  145.9313  157.0126 C.ar    1  UNL1        0.0398
     16 C         141.0591  145.4354  158.4087 C.ar    1  UNL1        0.0846
     17 N         140.0928  144.3147  158.6540 N.ar    1  UNL1       -0.2696
     18 N         146.3716  141.7812  163.2564 N.3     1  UNL1       -0.3219
     19 C         145.0157  141.1716  163.4560 C.3     1  UNL1        0.0553
     20 H         147.0792  141.1840  163.6844 H       1  UNL1        0.1188
     21 H         146.3970  142.7036  163.6911 H       1  UNL1        0.1188
     22 C         144.8784  139.8735  164.1950 C.3     1  UNL1        0.0442
     23 C         143.5189  139.2863  164.4333 C.ar    1  UNL1        0.0090
     24 C         142.7443  139.6623  165.6615 C.ar    1  UNL1        0.0300
     25 C         141.3847  139.0752  165.8999 C.ar    1  UNL1        0.1672
     26 F         140.6101  139.4512  167.1281 F       1  UNL1       -0.2018
     27 C         140.7998  138.1119  164.9100 C.ar    1  UNL1        0.1696
     28 F         139.4402  137.5247  165.1482 F       1  UNL1       -0.2017
     29 C         141.5743  137.7358  163.6817 C.ar    1  UNL1        0.0612
     30 C         142.9339  138.3230  163.4434 C.ar    1  UNL1        0.1386
     31 F         143.7085  137.9469  162.2151 F       1  UNL1       -0.2044
@<TRIPOS>BOND
     1    19    18    1
     2    19    22    1
     3    22    23    1
     4    23    24   ar
     5    24    25   ar
     6    25    26    1
     7    25    27   ar
     8    27    28    1
     9    27    29   ar
    10    29    30   ar
    11    30    31    1
    12    19     1    1
    13     1     2    1
    14     2     3    1
    15     3     4    1
    16     4     5   am
    17     5     6    2
    18     5     9    1
    19     9    10   ar
    20    10    11   ar
    21    11    12   ar
    22    12    13   ar
    23    13    14   ar
    24    14    15   ar
    25    15    16   ar
    26    16    17   ar
    27     4     7    1
    28     7     8    1
    29    30    23   ar
    30     8     1    1
    31    17     9   ar
    32    17    12   ar
    33    18    20    1
    34    18    21    1
