@<TRIPOS>MOLECULE
*****
 31 32 0 0 0
SMALL
GASTEIGER

@<TRIPOS>ATOM
      1 C         140.4813  141.4802  169.3037 C.3     1  UNL1        0.0828
      2 C         140.2552  142.6604  170.2016 C.2     1  UNL1        0.2442
      3 O         140.1253  142.4621  171.6827 O.2     1  UNL1       -0.2730
      4 N         140.1589  144.0390  169.6182 N.am    1  UNL1       -0.1970
      5 O         139.9329  145.2192  170.5159 O.3     1  UNL1       -0.2952
      6 H         140.2442  144.1692  168.6460 H       1  UNL1        0.1822
      7 H         139.8723  144.9185  171.4361 H       1  UNL1        0.2414
      8 C         141.7626  141.3584  168.5335 C.3     1  UNL1        0.0355
      9 C         139.6273  143.6064  164.3637 C.3     1  UNL1        0.0334
     10 C         140.8447  143.1768  165.1275 C.ar    1  UNL1        0.0050
     11 C         140.6950  142.4824  166.4486 C.ar    1  UNL1       -0.0063
     12 C         141.9124  142.0528  167.2123 C.ar    1  UNL1       -0.0222
     13 C         143.2796  142.3175  166.6549 C.ar    1  UNL1       -0.0063
     14 C         143.4293  143.0118  165.3338 C.ar    1  UNL1        0.0050
     15 C         144.7965  143.2766  164.7763 C.3     1  UNL1        0.0334
     16 C         142.2119  143.4415  164.5700 C.ar    1  UNL1        0.1321
     17 F         142.3616  144.1359  163.2488 F       1  UNL1       -0.2048
     18 C         139.4261  140.4218  169.1762 C.3     1  UNL1        0.0095
     19 C         139.3197  139.6169  167.9149 C.3     1  UNL1        0.0019
     20 C         137.9933  139.0593  167.4907 C.3     1  UNL1        0.0171
     21 C         137.9057  138.1621  166.2918 C.3     1  UNL1        0.0688
     22 N         139.1102  137.9518  165.4229 N.3     1  UNL1       -0.2937
     23 H         138.8537  137.2494  164.7292 H       1  UNL1        0.1236
     24 C         139.7036  139.1063  164.6713 C.3     1  UNL1        0.0956
     25 C         141.1932  139.2458  164.5648 C.ar    1  UNL1       -0.0062
     26 C         142.0775  138.6887  165.6408 C.ar    1  UNL1       -0.0006
     27 C         143.5672  138.8282  165.5343 C.ar    1  UNL1        0.0294
     28 C         144.1727  139.5247  164.3518 C.ar    1  UNL1        0.1401
     29 F         145.6623  139.6642  164.2453 F       1  UNL1       -0.2042
     30 C         143.2884  140.0818  163.2758 C.ar    1  UNL1        0.0294
     31 C         141.7987  139.9423  163.3822 C.ar    1  UNL1       -0.0006
@<TRIPOS>BOND
     1     9    10    1
     2    10    11   ar
     3    11    12   ar
     4    12     8    1
     5     1     8    1
     6     1    18    1
     7    18    19    1
     8    19    20    1
     9    20    21    1
    10    21    22    1
    11    22    24    1
    12    24    25    1
    13    25    26   ar
    14    26    27   ar
    15    27    28   ar
    16    28    29    1
    17    28    30   ar
    18    30    31   ar
    19     1     2    1
    20     2     3    2
    21     2     4   am
    22     4     5    1
    23    12    13   ar
    24    13    14   ar
    25    14    15    1
    26    14    16   ar
    27    16    17    1
    28    16    10   ar
    29    31    25   ar
    30    22    23    1
    31     4     6    1
    32     5     7    1
@<TRIPOS>MOLECULE
*****
 31 32 0 0 0
SMALL
GASTEIGER

@<TRIPOS>ATOM
      1 C         139.7123  140.2325  167.9892 C.3     1  UNL1        0.0828
      2 C         140.4138  140.0900  169.3074 C.2     1  UNL1        0.2442
      3 O         141.7644  139.4407  169.3718 O.2     1  UNL1       -0.2730
      4 N         139.7646  140.5967  170.5611 N.am    1  UNL1       -0.1970
      5 O         140.4661  140.4542  171.8792 O.3     1  UNL1       -0.2952
      6 H         138.8782  141.0229  170.5188 H       1  UNL1        0.1822
      7 H         141.3213  140.0165  171.7448 H       1  UNL1        0.2414
      8 C         140.0878  141.3455  167.0562 C.3     1  UNL1        0.0355
      9 C         144.5624  143.5450  165.5933 C.3     1  UNL1        0.0334
     10 C         143.6157  142.3819  165.5629 C.ar    1  UNL1        0.0050
     11 C         142.3252  142.4452  166.3247 C.ar    1  UNL1       -0.0063
     12 C         141.3784  141.2821  166.2943 C.ar    1  UNL1       -0.0222
     13 C         141.7222  140.0558  165.5020 C.ar    1  UNL1       -0.0063
     14 C         143.0128  139.9925  164.7402 C.ar    1  UNL1        0.0050
     15 C         143.3566  138.7660  163.9478 C.3     1  UNL1        0.0334
     16 C         143.9595  141.1556  164.7706 C.ar    1  UNL1        0.1321
     17 F         145.2501  141.0922  164.0087 F       1  UNL1       -0.2048
     18 C         138.6353  139.2622  167.6039 C.3     1  UNL1        0.0095
     19 C         138.2606  139.0913  166.1616 C.3     1  UNL1        0.0019
     20 C         138.6402  137.8371  165.4316 C.3     1  UNL1        0.0171
     21 C         139.0916  137.9083  164.0029 C.3     1  UNL1        0.0688
     22 N         138.4099  138.8414  163.0466 N.3     1  UNL1       -0.2937
     23 H         137.6114  139.2385  163.5415 H       1  UNL1        0.1236
     24 C         139.1674  139.9920  162.4529 C.3     1  UNL1        0.0956
     25 C         139.1302  141.3366  163.1166 C.ar    1  UNL1       -0.0062
     26 C         137.9401  141.7348  163.9383 C.ar    1  UNL1       -0.0006
     27 C         137.9030  143.0795  164.6020 C.ar    1  UNL1        0.0294
     28 C         139.0559  144.0260  164.4439 C.ar    1  UNL1        0.1401
     29 F         139.0187  145.3706  165.1076 F       1  UNL1       -0.2042
     30 C         140.2459  143.6278  163.6222 C.ar    1  UNL1        0.0294
     31 C         140.2831  142.2831  162.9585 C.ar    1  UNL1       -0.0006
@<TRIPOS>BOND
     1     9    10    1
     2    10    11   ar
     3    11    12   ar
     4    12     8    1
     5     1     8    1
     6     1    18    1
     7    18    19    1
     8    19    20    1
     9    20    21    1
    10    21    22    1
    11    22    24    1
    12    24    25    1
    13    25    26   ar
    14    26    27   ar
    15    27    28   ar
    16    28    29    1
    17    28    30   ar
    18    30    31   ar
    19     1     2    1
    20     2     3    2
    21     2     4   am
    22     4     5    1
    23    12    13   ar
    24    13    14   ar
    25    14    15    1
    26    14    16   ar
    27    16    17    1
    28    16    10   ar
    29    31    25   ar
    30    22    23    1
    31     4     6    1
    32     5     7    1
@<TRIPOS>MOLECULE
*****
 31 32 0 0 0
SMALL
GASTEIGER

@<TRIPOS>ATOM
      1 C         140.6130  144.6132  163.8262 C.3     1  UNL1        0.0828
      2 C         139.8216  145.1155  162.6551 C.2     1  UNL1        0.2442
      3 O         138.8666  144.2005  161.9474 O.2     1  UNL1       -0.2730
      4 N         139.9853  146.5326  162.1916 N.am    1  UNL1       -0.1970
      5 O         139.1939  147.0349  161.0205 O.3     1  UNL1       -0.2952
      6 H         140.6121  147.1332  162.6561 H       1  UNL1        0.1822
      7 H         138.6296  146.3222  160.6821 H       1  UNL1        0.2414
      8 C         139.9506  143.7642  164.8704 C.3     1  UNL1        0.0355
      9 C         141.2976  139.4857  162.2474 C.3     1  UNL1        0.0334
     10 C         140.6106  140.1320  163.4137 C.ar    1  UNL1        0.0050
     11 C         140.6241  141.6249  163.5589 C.ar    1  UNL1       -0.0063
     12 C         139.9371  142.2712  164.7252 C.ar    1  UNL1       -0.0222
     13 C         139.2365  141.4247  165.7462 C.ar    1  UNL1       -0.0063
     14 C         139.2230  139.9319  165.6010 C.ar    1  UNL1        0.0050
     15 C         138.5224  139.0853  166.6221 C.3     1  UNL1        0.0334
     16 C         139.9100  139.2855  164.4347 C.ar    1  UNL1        0.1321
     17 F         139.8965  137.7926  164.2895 F       1  UNL1       -0.2048
     18 C         142.0668  144.9601  163.9532 C.3     1  UNL1        0.0095
     19 C         142.9847  144.7859  162.7797 C.3     1  UNL1        0.0019
     20 C         143.1984  143.4231  162.1905 C.3     1  UNL1        0.0171
     21 C         144.5818  142.9721  161.8259 C.3     1  UNL1        0.0688
     22 N         145.4216  142.2409  162.8309 N.3     1  UNL1       -0.2937
     23 H         145.4483  142.8206  163.6698 H       1  UNL1        0.1236
     24 C         145.0329  140.8605  163.2707 C.3     1  UNL1        0.0956
     25 C         144.2255  140.6710  164.5205 C.ar    1  UNL1       -0.0062
     26 C         143.7764  141.8638  165.3114 C.ar    1  UNL1       -0.0006
     27 C         142.9690  141.6743  166.5613 C.ar    1  UNL1        0.0294
     28 C         142.6106  140.2919  167.0202 C.ar    1  UNL1        0.1401
     29 F         141.8031  140.1024  168.2700 F       1  UNL1       -0.2042
     30 C         143.0596  139.0991  166.2293 C.ar    1  UNL1        0.0294
     31 C         143.8671  139.2886  164.9795 C.ar    1  UNL1       -0.0006
@<TRIPOS>BOND
     1     9    10    1
     2    10    11   ar
     3    11    12   ar
     4    12     8    1
     5     1     8    1
     6     1    18    1
     7    18    19    1
     8    19    20    1
     9    20    21    1
    10    21    22    1
    11    22    24    1
    12    24    25    1
    13    25    26   ar
    14    26    27   ar
    15    27    28   ar
    16    28    29    1
    17    28    30   ar
    18    30    31   ar
    19     1     2    1
    20     2     3    2
    21     2     4   am
    22     4     5    1
    23    12    13   ar
    24    13    14   ar
    25    14    15    1
    26    14    16   ar
    27    16    17    1
    28    16    10   ar
    29    31    25   ar
    30    22    23    1
    31     4     6    1
    32     5     7    1
@<TRIPOS>MOLECULE
*****
 31 32 0 0 0
SMALL
GASTEIGER

@<TRIPOS>ATOM
      1 C         141.8776  140.6037  168.7199 C.3     1  UNL1        0.0828
      2 C         142.9414  140.5703  169.7770 C.2     1  UNL1        0.2442
      3 O         143.8226  141.7649  169.9923 O.2     1  UNL1       -0.2730
      4 N         143.1239  139.3423  170.6188 N.am    1  UNL1       -0.1970
      5 O         144.1876  139.3088  171.6758 O.3     1  UNL1       -0.2952
      6 H         142.5455  138.5582  170.4775 H       1  UNL1        0.1822
      7 H         144.6629  140.1543  171.6831 H       1  UNL1        0.2414
      8 C         142.1413  141.2890  167.4120 C.3     1  UNL1        0.0355
      9 C         141.4273  137.0864  164.4408 C.3     1  UNL1        0.0334
     10 C         142.1382  138.3787  164.7138 C.ar    1  UNL1        0.0050
     11 C         141.7844  139.1877  165.9263 C.ar    1  UNL1       -0.0063
     12 C         142.4952  140.4801  166.1993 C.ar    1  UNL1       -0.0222
     13 C         143.5599  140.9634  165.2598 C.ar    1  UNL1       -0.0063
     14 C         143.9137  140.1545  164.0472 C.ar    1  UNL1        0.0050
     15 C         144.9784  140.6378  163.1076 C.3     1  UNL1        0.0334
     16 C         143.2028  138.8621  163.7742 C.ar    1  UNL1        0.1321
     17 F         143.5567  138.0531  162.5616 F       1  UNL1       -0.2048
     18 C         140.5502  139.9519  168.9709 C.3     1  UNL1        0.0095
     19 C         139.3727  140.2908  168.1057 C.3     1  UNL1        0.0019
     20 C         138.3825  139.2264  167.7359 C.3     1  UNL1        0.0171
     21 C         138.1050  138.9293  166.2921 C.3     1  UNL1        0.0688
     22 N         137.8397  140.0516  165.3330 N.3     1  UNL1       -0.2937
     23 H         137.8376  140.9123  165.8802 H       1  UNL1        0.1236
     24 C         138.7612  140.2791  164.1715 C.3     1  UNL1        0.0956
     25 C         139.6375  141.4960  164.1366 C.ar    1  UNL1       -0.0062
     26 C         140.6364  141.6695  163.0311 C.ar    1  UNL1       -0.0006
     27 C         141.5127  142.8865  162.9962 C.ar    1  UNL1        0.0294
     28 C         141.3901  143.9299  164.0668 C.ar    1  UNL1        0.1401
     29 F         142.2664  145.1468  164.0319 F       1  UNL1       -0.2042
     30 C         140.3912  143.7564  165.1723 C.ar    1  UNL1        0.0294
     31 C         139.5149  142.5395  165.2072 C.ar    1  UNL1       -0.0006
@<TRIPOS>BOND
     1     9    10    1
     2    10    11   ar
     3    11    12   ar
     4    12     8    1
     5     1     8    1
     6     1    18    1
     7    18    19    1
     8    19    20    1
     9    20    21    1
    10    21    22    1
    11    22    24    1
    12    24    25    1
    13    25    26   ar
    14    26    27   ar
    15    27    28   ar
    16    28    29    1
    17    28    30   ar
    18    30    31   ar
    19     1     2    1
    20     2     3    2
    21     2     4   am
    22     4     5    1
    23    12    13   ar
    24    13    14   ar
    25    14    15    1
    26    14    16   ar
    27    16    17    1
    28    16    10   ar
    29    31    25   ar
    30    22    23    1
    31     4     6    1
    32     5     7    1
@<TRIPOS>MOLECULE
*****
 31 32 0 0 0
SMALL
GASTEIGER

@<TRIPOS>ATOM
      1 C         141.5963  140.5051  167.9719 C.3     1  UNL1        0.0828
      2 C         140.8224  140.2973  169.2400 C.2     1  UNL1        0.2442
      3 O         139.4571  139.6779  169.1925 O.2     1  UNL1       -0.2730
      4 N         141.4139  140.7088  170.5556 N.am    1  UNL1       -0.1970
      5 O         140.6401  140.5010  171.8236 O.3     1  UNL1       -0.2952
      6 H         142.3100  141.1154  170.5868 H       1  UNL1        0.1822
      7 H         139.7845  140.0933  171.6172 H       1  UNL1        0.2414
      8 C         142.2383  141.8319  167.6941 C.3     1  UNL1        0.0355
      9 C         143.3907  144.2374  163.2347 C.3     1  UNL1        0.0334
     10 C         142.3851  143.8412  164.2748 C.ar    1  UNL1        0.0050
     11 C         142.8145  143.0347  165.4643 C.ar    1  UNL1       -0.0063
     12 C         141.8089  142.6385  166.5045 C.ar    1  UNL1       -0.0222
     13 C         140.3739  143.0489  166.3550 C.ar    1  UNL1       -0.0063
     14 C         139.9445  143.8554  165.1655 C.ar    1  UNL1        0.0050
     15 C         138.5094  144.2658  165.0160 C.3     1  UNL1        0.0334
     16 C         140.9501  144.2516  164.1254 C.ar    1  UNL1        0.1321
     17 F         140.5206  145.0582  162.9358 F       1  UNL1       -0.2048
     18 C         141.7281  139.3861  166.9818 C.3     1  UNL1        0.0095
     19 C         143.0801  138.8170  166.6687 C.3     1  UNL1        0.0019
     20 C         143.5533  138.7466  165.2470 C.3     1  UNL1        0.0171
     21 C         142.9887  139.6842  164.2213 C.3     1  UNL1        0.0688
     22 N         142.4685  139.1479  162.9206 N.3     1  UNL1       -0.2937
     23 H         142.7914  138.1830  162.8497 H       1  UNL1        0.1236
     24 C         140.9927  139.1314  162.6527 C.3     1  UNL1        0.0956
     25 C         140.0251  138.9997  163.7913 C.ar    1  UNL1       -0.0062
     26 C         139.7534  137.6526  164.3926 C.ar    1  UNL1       -0.0006
     27 C         138.7858  137.5209  165.5313 C.ar    1  UNL1        0.0294
     28 C         138.0900  138.7362  166.0686 C.ar    1  UNL1        0.1401
     29 F         137.1225  138.6044  167.2072 F       1  UNL1       -0.2042
     30 C         138.3617  140.0833  165.4674 C.ar    1  UNL1        0.0294
     31 C         139.3293  140.2150  164.3287 C.ar    1  UNL1       -0.0006
@<TRIPOS>BOND
     1     9    10    1
     2    10    11   ar
     3    11    12   ar
     4    12     8    1
     5     1     8    1
     6     1    18    1
     7    18    19    1
     8    19    20    1
     9    20    21    1
    10    21    22    1
    11    22    24    1
    12    24    25    1
    13    25    26   ar
    14    26    27   ar
    15    27    28   ar
    16    28    29    1
    17    28    30   ar
    18    30    31   ar
    19     1     2    1
    20     2     3    2
    21     2     4   am
    22     4     5    1
    23    12    13   ar
    24    13    14   ar
    25    14    15    1
    26    14    16   ar
    27    16    17    1
    28    16    10   ar
    29    31    25   ar
    30    22    23    1
    31     4     6    1
    32     5     7    1
@<TRIPOS>MOLECULE
*****
 31 32 0 0 0
SMALL
GASTEIGER

@<TRIPOS>ATOM
      1 C         140.0606  140.5717  168.3237 C.3     1  UNL1        0.0828
      2 C         139.2810  140.4149  169.5956 C.2     1  UNL1        0.2442
      3 O         139.7456  141.0957  170.8488 O.2     1  UNL1       -0.2730
      4 N         138.0368  139.5773  169.6142 N.am    1  UNL1       -0.1970
      5 O         137.2572  139.4205  170.8860 O.3     1  UNL1       -0.2952
      6 H         137.7318  139.1305  168.7916 H       1  UNL1        0.1822
      7 H         137.6906  139.9212  171.5948 H       1  UNL1        0.2414
      8 C         141.0358  141.7019  168.1762 C.3     1  UNL1        0.0355
      9 C         143.7447  143.0792  163.9614 C.3     1  UNL1        0.0334
     10 C         142.4831  143.1365  164.7707 C.ar    1  UNL1        0.0050
     11 C         142.3902  142.3906  166.0688 C.ar    1  UNL1       -0.0063
     12 C         141.1286  142.4478  166.8781 C.ar    1  UNL1       -0.0222
     13 C         139.9598  143.2509  166.3893 C.ar    1  UNL1       -0.0063
     14 C         140.0526  143.9968  165.0913 C.ar    1  UNL1        0.0050
     15 C         138.8838  144.7999  164.6025 C.3     1  UNL1        0.0334
     16 C         141.3143  143.9396  164.2820 C.ar    1  UNL1        0.1321
     17 F         141.4071  144.6855  162.9838 F       1  UNL1       -0.2048
     18 C         139.8651  139.5983  167.1993 C.3     1  UNL1        0.0095
     19 C         138.6354  139.6774  166.3441 C.3     1  UNL1        0.0019
     20 C         138.7442  140.1117  164.9124 C.3     1  UNL1        0.0171
     21 C         138.9483  139.0908  163.8325 C.3     1  UNL1        0.0688
     22 N         139.4163  137.7099  164.1845 N.3     1  UNL1       -0.2937
     23 H         138.6857  137.0654  163.8822 H       1  UNL1        0.1236
     24 C         140.7089  137.1913  163.6276 C.3     1  UNL1        0.0956
     25 C         141.9766  137.9680  163.8266 C.ar    1  UNL1       -0.0062
     26 C         142.4716  138.2532  165.2135 C.ar    1  UNL1       -0.0006
     27 C         143.7394  139.0300  165.4124 C.ar    1  UNL1        0.0294
     28 C         144.5120  139.5216  164.2244 C.ar    1  UNL1        0.1401
     29 F         145.7796  140.2984  164.4233 F       1  UNL1       -0.2042
     30 C         144.0169  139.2364  162.8375 C.ar    1  UNL1        0.0294
     31 C         142.7492  138.4597  162.6385 C.ar    1  UNL1       -0.0006
@<TRIPOS>BOND
     1     9    10    1
     2    10    11   ar
     3    11    12   ar
     4    12     8    1
     5     1     8    1
     6     1    18    1
     7    18    19    1
     8    19    20    1
     9    20    21    1
    10    21    22    1
    11    22    24    1
    12    24    25    1
    13    25    26   ar
    14    26    27   ar
    15    27    28   ar
    16    28    29    1
    17    28    30   ar
    18    30    31   ar
    19     1     2    1
    20     2     3    2
    21     2     4   am
    22     4     5    1
    23    12    13   ar
    24    13    14   ar
    25    14    15    1
    26    14    16   ar
    27    16    17    1
    28    16    10   ar
    29    31    25   ar
    30    22    23    1
    31     4     6    1
    32     5     7    1
@<TRIPOS>MOLECULE
*****
 31 32 0 0 0
SMALL
GASTEIGER

@<TRIPOS>ATOM
      1 C         139.5952  143.6517  162.7224 C.3     1  UNL1        0.0828
      2 C         138.7655  143.1573  161.5747 C.2     1  UNL1        0.2442
      3 O         137.5438  142.3271  161.8353 O.2     1  UNL1       -0.2730
      4 N         139.1576  143.4933  160.1663 N.am    1  UNL1       -0.1970
      5 O         138.3280  142.9989  159.0186 O.3     1  UNL1       -0.2952
      6 H         139.9595  144.0382  159.9953 H       1  UNL1        0.1822
      7 H         137.5811  142.4818  159.3587 H       1  UNL1        0.2414
      8 C         138.9851  143.7850  164.0862 C.3     1  UNL1        0.0355
      9 C         141.4182  142.4068  168.4658 C.3     1  UNL1        0.0334
     10 C         140.4948  142.0719  167.3321 C.ar    1  UNL1        0.0050
     11 C         140.2017  143.0959  166.2760 C.ar    1  UNL1       -0.0063
     12 C         139.2783  142.7609  165.1424 C.ar    1  UNL1       -0.0222
     13 C         138.6480  141.4020  165.0648 C.ar    1  UNL1       -0.0063
     14 C         138.9412  140.3780  166.1209 C.ar    1  UNL1        0.0050
     15 C         138.3110  139.0190  166.0435 C.3     1  UNL1        0.0334
     16 C         139.8646  140.7129  167.2546 C.ar    1  UNL1        0.1321
     17 F         140.1578  139.6889  168.3107 F       1  UNL1       -0.2048
     18 C         141.0349  144.0128  162.5063 C.3     1  UNL1        0.0095
     19 C         141.6487  145.1432  163.2780 C.3     1  UNL1        0.0019
     20 C         143.0486  145.0202  163.8027 C.3     1  UNL1        0.0171
     21 C         143.9941  144.0289  163.1916 C.3     1  UNL1        0.0688
     22 N         144.5138  142.8848  164.0106 N.3     1  UNL1       -0.2937
     23 H         145.3864  143.1990  164.4351 H       1  UNL1        0.1236
     24 C         143.6763  142.3120  165.1154 C.3     1  UNL1        0.0956
     25 C         143.0077  140.9812  164.9370 C.ar    1  UNL1       -0.0062
     26 C         142.1399  140.7325  163.7391 C.ar    1  UNL1       -0.0006
     27 C         141.4713  139.4016  163.5607 C.ar    1  UNL1        0.0294
     28 C         141.6705  138.3195  164.5802 C.ar    1  UNL1        0.1401
     29 F         141.0019  136.9887  164.4018 F       1  UNL1       -0.2042
     30 C         142.5383  138.5683  165.7782 C.ar    1  UNL1        0.0294
     31 C         143.2069  139.8991  165.9566 C.ar    1  UNL1       -0.0006
@<TRIPOS>BOND
     1     9    10    1
     2    10    11   ar
     3    11    12   ar
     4    12     8    1
     5     1     8    1
     6     1    18    1
     7    18    19    1
     8    19    20    1
     9    20    21    1
    10    21    22    1
    11    22    24    1
    12    24    25    1
    13    25    26   ar
    14    26    27   ar
    15    27    28   ar
    16    28    29    1
    17    28    30   ar
    18    30    31   ar
    19     1     2    1
    20     2     3    2
    21     2     4   am
    22     4     5    1
    23    12    13   ar
    24    13    14   ar
    25    14    15    1
    26    14    16   ar
    27    16    17    1
    28    16    10   ar
    29    31    25   ar
    30    22    23    1
    31     4     6    1
    32     5     7    1
@<TRIPOS>MOLECULE
*****
 31 32 0 0 0
SMALL
GASTEIGER

@<TRIPOS>ATOM
      1 C         138.3329  142.3649  161.8661 C.3     1  UNL1        0.0828
      2 C         138.7743  143.6875  161.3128 C.2     1  UNL1        0.2442
      3 O         139.2974  143.7767  159.9099 O.2     1  UNL1       -0.2730
      4 N         138.6926  144.9208  162.1627 N.am    1  UNL1       -0.1970
      5 O         139.1340  146.2433  161.6095 O.3     1  UNL1       -0.2952
      6 H         138.3493  144.8622  163.0835 H       1  UNL1        0.1822
      7 H         139.4420  146.1257  160.6973 H       1  UNL1        0.2414
      8 C         137.5921  142.3065  163.1691 C.3     1  UNL1        0.0355
      9 C         138.2844  138.1689  166.2351 C.3     1  UNL1        0.0334
     10 C         138.5778  139.6013  165.9005 C.ar    1  UNL1        0.0050
     11 C         137.9383  140.2377  164.7021 C.ar    1  UNL1       -0.0063
     12 C         138.2316  141.6702  164.3675 C.ar    1  UNL1       -0.0222
     13 C         139.1644  142.4663  165.2313 C.ar    1  UNL1       -0.0063
     14 C         139.8038  141.8299  166.4296 C.ar    1  UNL1        0.0050
     15 C         140.7367  142.6261  167.2934 C.3     1  UNL1        0.0334
     16 C         139.5105  140.3975  166.7642 C.ar    1  UNL1        0.1321
     17 F         140.1500  139.7611  167.9627 F       1  UNL1       -0.2048
     18 C         138.6322  141.1007  161.1162 C.3     1  UNL1        0.0095
     19 C         137.5317  140.1252  160.8212 C.3     1  UNL1        0.0019
     20 C         137.6030  138.7278  161.3620 C.3     1  UNL1        0.0171
     21 C         138.9326  138.0513  161.5186 C.3     1  UNL1        0.0688
     22 N         139.3188  137.4530  162.8388 N.3     1  UNL1       -0.2937
     23 H         138.9010  136.5232  162.8742 H       1  UNL1        0.1236
     24 C         140.7671  137.2908  163.1939 C.3     1  UNL1        0.0956
     25 C         141.5030  138.4087  163.8711 C.ar    1  UNL1       -0.0062
     26 C         142.2205  138.1592  165.1645 C.ar    1  UNL1       -0.0006
     27 C         142.9565  139.2772  165.8417 C.ar    1  UNL1        0.0294
     28 C         142.9749  140.6446  165.2255 C.ar    1  UNL1        0.1401
     29 F         143.7108  141.7625  165.9027 F       1  UNL1       -0.2042
     30 C         142.2574  140.8942  163.9321 C.ar    1  UNL1        0.0294
     31 C         141.5214  139.7763  163.2549 C.ar    1  UNL1       -0.0006
@<TRIPOS>BOND
     1     9    10    1
     2    10    11   ar
     3    11    12   ar
     4    12     8    1
     5     1     8    1
     6     1    18    1
     7    18    19    1
     8    19    20    1
     9    20    21    1
    10    21    22    1
    11    22    24    1
    12    24    25    1
    13    25    26   ar
    14    26    27   ar
    15    27    28   ar
    16    28    29    1
    17    28    30   ar
    18    30    31   ar
    19     1     2    1
    20     2     3    2
    21     2     4   am
    22     4     5    1
    23    12    13   ar
    24    13    14   ar
    25    14    15    1
    26    14    16   ar
    27    16    17    1
    28    16    10   ar
    29    31    25   ar
    30    22    23    1
    31     4     6    1
    32     5     7    1
@<TRIPOS>MOLECULE
*****
 31 32 0 0 0
SMALL
GASTEIGER

@<TRIPOS>ATOM
      1 C         140.3884  143.9411  165.0195 C.3     1  UNL1        0.0828
      2 C         141.4680  144.2435  164.0228 C.2     1  UNL1        0.2442
      3 O         142.9065  144.0204  164.3844 O.2     1  UNL1       -0.2730
      4 N         141.1088  144.7689  162.6645 N.am    1  UNL1       -0.1970
      5 O         142.1883  145.0713  161.6678 O.3     1  UNL1       -0.2952
      6 H         140.1647  144.9153  162.4271 H       1  UNL1        0.1822
      7 H         143.0537  144.8730  162.0584 H       1  UNL1        0.2414
      8 C         140.6545  142.9889  166.1475 C.3     1  UNL1        0.0355
      9 C         138.5933  138.2768  165.4073 C.3     1  UNL1        0.0334
     10 C         139.7957  139.1690  165.4985 C.ar    1  UNL1        0.0050
     11 C         139.6239  140.6328  165.7774 C.ar    1  UNL1       -0.0063
     12 C         140.8263  141.5250  165.8686 C.ar    1  UNL1       -0.0222
     13 C         142.2003  140.9535  165.6808 C.ar    1  UNL1       -0.0063
     14 C         142.3720  139.4897  165.4019 C.ar    1  UNL1        0.0050
     15 C         143.7461  138.9181  165.2141 C.3     1  UNL1        0.0334
     16 C         141.1697  138.5975  165.3107 C.ar    1  UNL1        0.1321
     17 F         141.3415  137.1337  165.0318 F       1  UNL1       -0.2048
     18 C         139.0430  144.5910  164.8881 C.3     1  UNL1        0.0095
     19 C         137.8374  143.7602  164.5620 C.3     1  UNL1        0.0019
     20 C         137.7698  143.0143  163.2623 C.3     1  UNL1        0.0171
     21 C         137.2070  141.6244  163.2237 C.3     1  UNL1        0.0688
     22 N         137.2756  140.8224  161.9579 N.3     1  UNL1       -0.2937
     23 H         137.7830  141.3884  161.2779 H       1  UNL1        0.1236
     24 C         137.9210  139.4684  161.9620 C.3     1  UNL1        0.0956
     25 C         139.4150  139.3495  161.9014 C.ar    1  UNL1       -0.0062
     26 C         140.0561  137.9976  161.7950 C.ar    1  UNL1       -0.0006
     27 C         141.5502  137.8787  161.7344 C.ar    1  UNL1        0.0294
     28 C         142.4031  139.1117  161.7802 C.ar    1  UNL1        0.1401
     29 F         143.8972  138.9928  161.7196 F       1  UNL1       -0.2042
     30 C         141.7620  140.4636  161.8866 C.ar    1  UNL1        0.0294
     31 C         140.2680  140.5825  161.9472 C.ar    1  UNL1       -0.0006
@<TRIPOS>BOND
     1     9    10    1
     2    10    11   ar
     3    11    12   ar
     4    12     8    1
     5     1     8    1
     6     1    18    1
     7    18    19    1
     8    19    20    1
     9    20    21    1
    10    21    22    1
    11    22    24    1
    12    24    25    1
    13    25    26   ar
    14    26    27   ar
    15    27    28   ar
    16    28    29    1
    17    28    30   ar
    18    30    31   ar
    19     1     2    1
    20     2     3    2
    21     2     4   am
    22     4     5    1
    23    12    13   ar
    24    13    14   ar
    25    14    15    1
    26    14    16   ar
    27    16    17    1
    28    16    10   ar
    29    31    25   ar
    30    22    23    1
    31     4     6    1
    32     5     7    1
