@<TRIPOS>MOLECULE
*****
 34 37 0 0 0
SMALL
GASTEIGER

@<TRIPOS>ATOM
      1 N         141.3524  138.8273  159.3719 N.pl3   1  UNL1       -0.2907
      2 C         142.0937  140.1220  159.5267 C.3     1  UNL1        0.0927
      3 C         141.9036  140.9522  160.7614 C.3     1  UNL1        0.0290
      4 C         140.9721  140.4876  161.8415 C.3     1  UNL1        0.0603
      5 C         140.2307  139.1929  161.6867 C.3     1  UNL1        0.0290
      6 C         140.4208  138.3627  160.4519 C.3     1  UNL1        0.0927
      7 C         140.4225  137.8541  157.1497 C.ar    1  UNL1        0.2010
      8 C         140.6127  137.0239  155.9149 C.ar    1  UNL1        0.1643
      9 N         139.4926  136.8808  154.9274 N.pl3   1  UNL1       -0.3401
     10 N         141.9229  136.3368  155.6676 N.ar    1  UNL1       -0.2062
     11 C         143.0430  136.4798  156.6550 C.ar    1  UNL1        0.2014
     12 N         142.8528  137.3100  157.8897 N.ar    1  UNL1       -0.2058
     13 C         141.5425  137.9971  158.1371 C.ar    1  UNL1        0.1705
     14 H         138.6327  137.3318  155.0898 H       1  UNL1        0.1438
     15 H         139.6175  136.3360  154.1170 H       1  UNL1        0.1438
     16 C         138.9054  139.9518  156.9310 C.3     1  UNL1        0.2528
     17 O         139.1123  138.5412  157.3970 O.3     1  UNL1       -0.4658
     18 C         140.7819  141.3178  163.0762 C.ar    1  UNL1        0.1200
     19 N         141.4981  141.1337  164.3813 N.ar    1  UNL1       -0.2309
     20 C         141.0010  142.1799  165.3343 C.ar    1  UNL1        0.0997
     21 C         139.9777  143.0107  164.6183 C.ar    1  UNL1        0.0962
     22 N         139.8423  142.4778  163.2227 N.ar    1  UNL1       -0.3117
     23 C         138.9278  143.0113  162.1601 C.3     1  UNL1        0.1317
     24 C         141.4487  142.3633  166.7542 C.ar    1  UNL1        0.0193
     25 C         142.8913  142.1696  167.1167 C.ar    1  UNL1        0.0038
     26 C         143.3391  142.3529  168.5364 C.ar    1  UNL1        0.0296
     27 C         142.3441  142.7300  169.5939 C.ar    1  UNL1        0.1440
     28 F         142.7918  142.9134  171.0137 F       1  UNL1       -0.2042
     29 C         140.9016  142.9237  169.2314 C.ar    1  UNL1        0.0988
     30 C         140.4539  142.7404  167.8115 C.ar    1  UNL1        0.0077
     31 C         139.9067  143.3008  170.2888 C.3     1  UNL1        0.4207
     32 F         138.9118  143.6778  171.3461 F       1  UNL1       -0.1658
     33 F         139.4553  141.8728  170.3732 F       1  UNL1       -0.1658
     34 F         140.3581  144.7287  170.2043 F       1  UNL1       -0.1658
@<TRIPOS>BOND
     1    16    17    1
     2    17     7    1
     3     7     8   ar
     4     8     9    1
     5     8    10   ar
     6    10    11   ar
     7    11    12   ar
     8    12    13   ar
     9    13     1    1
    10     1     2    1
    11     2     3    1
    12     3     4    1
    13     4    18    1
    14    18    19   ar
    15    19    20   ar
    16    20    24    1
    17    24    25   ar
    18    25    26   ar
    19    26    27   ar
    20    27    28    1
    21    27    29   ar
    22    29    31    1
    23    31    32    1
    24    31    33    1
    25    31    34    1
    26    29    30   ar
    27    20    21   ar
    28    21    22   ar
    29    22    23    1
    30     4     5    1
    31     5     6    1
    32    13     7   ar
    33     6     1    1
    34    22    18   ar
    35    30    24   ar
    36     9    14    1
    37     9    15    1
@<TRIPOS>MOLECULE
*****
 34 37 0 0 0
SMALL
GASTEIGER

@<TRIPOS>ATOM
      1 N         140.3913  139.0168  159.1165 N.pl3   1  UNL1       -0.2907
      2 C         139.6929  138.4503  160.3171 C.3     1  UNL1        0.0927
      3 C         139.6140  139.2483  161.5847 C.3     1  UNL1        0.0290
      4 C         140.2334  140.6128  161.6518 C.3     1  UNL1        0.0603
      5 C         140.9318  141.1793  160.4512 C.3     1  UNL1        0.0290
      6 C         141.0107  140.3812  159.1835 C.3     1  UNL1        0.0927
      7 C         141.7744  137.6110  157.4251 C.ar    1  UNL1        0.2010
      8 C         141.8533  136.8130  156.1574 C.ar    1  UNL1        0.1643
      9 N         143.1576  136.2053  155.7337 N.pl3   1  UNL1       -0.3401
     10 N         140.6279  136.6227  155.3136 N.ar    1  UNL1       -0.2062
     11 C         139.3236  137.2303  155.7373 C.ar    1  UNL1        0.2014
     12 N         139.2448  138.0284  157.0049 N.ar    1  UNL1       -0.2058
     13 C         140.4702  138.2187  157.8488 C.ar    1  UNL1        0.1705
     14 H         143.9619  136.3302  156.2875 H       1  UNL1        0.1438
     15 H         143.2094  135.6815  154.9017 H       1  UNL1        0.1438
     16 C         143.0730  137.1855  159.6347 C.3     1  UNL1        0.2528
     17 O         142.9998  137.8014  158.2690 O.3     1  UNL1       -0.4658
     18 C         140.1545  141.4108  162.9194 C.ar    1  UNL1        0.1200
     19 N         140.9921  141.2022  164.1462 N.ar    1  UNL1       -0.2309
     20 C         140.5794  142.2200  165.1678 C.ar    1  UNL1        0.0997
     21 C         139.4867  143.0577  164.5725 C.ar    1  UNL1        0.0962
     22 N         139.2241  142.5576  163.1829 N.ar    1  UNL1       -0.3117
     23 C         138.2093  143.1077  162.2250 C.3     1  UNL1        0.1317
     24 C         141.1578  142.3732  166.5433 C.ar    1  UNL1        0.0193
     25 C         142.6261  142.1634  166.7672 C.ar    1  UNL1        0.0038
     26 C         143.2045  142.3166  168.1426 C.ar    1  UNL1        0.0296
     27 C         142.3146  142.6796  169.2943 C.ar    1  UNL1        0.1440
     28 F         142.8929  142.8328  170.6698 F       1  UNL1       -0.2042
     29 C         140.8463  142.8894  169.0705 C.ar    1  UNL1        0.0988
     30 C         140.2679  142.7362  167.6950 C.ar    1  UNL1        0.0077
     31 C         139.9564  143.2524  170.2221 C.3     1  UNL1        0.4207
     32 F         139.0666  143.6154  171.3738 F       1  UNL1       -0.1658
     33 F         140.4455  144.6688  170.1536 F       1  UNL1       -0.1658
     34 F         139.4674  141.8361  170.2907 F       1  UNL1       -0.1658
@<TRIPOS>BOND
     1    16    17    1
     2    17     7    1
     3     7     8   ar
     4     8     9    1
     5     8    10   ar
     6    10    11   ar
     7    11    12   ar
     8    12    13   ar
     9    13     1    1
    10     1     2    1
    11     2     3    1
    12     3     4    1
    13     4    18    1
    14    18    19   ar
    15    19    20   ar
    16    20    24    1
    17    24    25   ar
    18    25    26   ar
    19    26    27   ar
    20    27    28    1
    21    27    29   ar
    22    29    31    1
    23    31    32    1
    24    31    33    1
    25    31    34    1
    26    29    30   ar
    27    20    21   ar
    28    21    22   ar
    29    22    23    1
    30     4     5    1
    31     5     6    1
    32    13     7   ar
    33     6     1    1
    34    22    18   ar
    35    30    24   ar
    36     9    14    1
    37     9    15    1
@<TRIPOS>MOLECULE
*****
 34 37 0 0 0
SMALL
GASTEIGER

@<TRIPOS>ATOM
      1 N         142.7307  139.2267  159.2709 N.pl3   1  UNL1       -0.2907
      2 C         141.5485  140.1103  159.5385 C.3     1  UNL1        0.0927
      3 C         140.8919  140.0966  160.8871 C.3     1  UNL1        0.0290
      4 C         141.4175  139.1992  161.9681 C.3     1  UNL1        0.0603
      5 C         142.5997  138.3156  161.7005 C.3     1  UNL1        0.0290
      6 C         143.2563  138.3294  160.3518 C.3     1  UNL1        0.0927
      7 C         142.9972  138.2268  156.8878 C.ar    1  UNL1        0.2010
      8 C         143.6538  138.2407  155.5392 C.ar    1  UNL1        0.1643
      9 N         143.2637  137.2269  154.5046 N.pl3   1  UNL1       -0.3401
     10 N         144.7005  139.2682  155.2251 N.ar    1  UNL1       -0.2062
     11 C         145.0906  140.2819  156.2596 C.ar    1  UNL1        0.2014
     12 N         144.4340  140.2680  157.6082 N.ar    1  UNL1       -0.2058
     13 C         143.3873  139.2405  157.9223 C.ar    1  UNL1        0.1705
     14 H         142.5767  136.5525  154.7107 H       1  UNL1        0.1438
     15 H         143.6947  137.2360  153.6195 H       1  UNL1        0.1438
     16 C         140.5117  137.4707  156.8763 C.3     1  UNL1        0.2528
     17 O         141.9505  137.1993  157.2018 O.3     1  UNL1       -0.4658
     18 C         140.7609  139.1854  163.3166 C.ar    1  UNL1        0.1200
     19 N         141.3026  139.8116  164.5674 N.ar    1  UNL1       -0.2309
     20 C         140.3238  139.5563  165.6750 C.ar    1  UNL1        0.0997
     21 C         139.1772  138.7723  165.1088 C.ar    1  UNL1        0.0962
     22 N         139.4473  138.5431  163.6512 N.ar    1  UNL1       -0.3117
     23 C         138.5597  137.8017  162.6960 C.3     1  UNL1        0.1317
     24 C         140.4666  140.0060  167.0989 C.ar    1  UNL1        0.0193
     25 C         139.3134  139.8683  168.0481 C.ar    1  UNL1        0.0038
     26 C         139.4560  140.3179  169.4719 C.ar    1  UNL1        0.0296
     27 C         140.7521  140.9054  169.9466 C.ar    1  UNL1        0.1440
     28 F         140.8949  141.3551  171.3704 F       1  UNL1       -0.2042
     29 C         141.9054  141.0431  168.9974 C.ar    1  UNL1        0.0988
     30 C         141.7626  140.5934  167.5735 C.ar    1  UNL1        0.0077
     31 C         143.2013  141.6306  169.4720 C.3     1  UNL1        0.4207
     32 F         144.4973  142.2180  169.9467 F       1  UNL1       -0.1658
     33 F         143.4683  140.3924  170.2755 F       1  UNL1       -0.1658
     34 F         142.9344  142.8687  168.6685 F       1  UNL1       -0.1658
@<TRIPOS>BOND
     1    16    17    1
     2    17     7    1
     3     7     8   ar
     4     8     9    1
     5     8    10   ar
     6    10    11   ar
     7    11    12   ar
     8    12    13   ar
     9    13     1    1
    10     1     2    1
    11     2     3    1
    12     3     4    1
    13     4    18    1
    14    18    19   ar
    15    19    20   ar
    16    20    24    1
    17    24    25   ar
    18    25    26   ar
    19    26    27   ar
    20    27    28    1
    21    27    29   ar
    22    29    31    1
    23    31    32    1
    24    31    33    1
    25    31    34    1
    26    29    30   ar
    27    20    21   ar
    28    21    22   ar
    29    22    23    1
    30     4     5    1
    31     5     6    1
    32    13     7   ar
    33     6     1    1
    34    22    18   ar
    35    30    24   ar
    36     9    14    1
    37     9    15    1
@<TRIPOS>MOLECULE
*****
 34 37 0 0 0
SMALL
GASTEIGER

@<TRIPOS>ATOM
      1 N         140.8546  140.8960  166.2604 N.pl3   1  UNL1       -0.2907
      2 C         140.1133  141.4483  165.0791 C.3     1  UNL1        0.0927
      3 C         140.5499  141.0958  163.6880 C.3     1  UNL1        0.0290
      4 C         141.7277  140.1910  163.4782 C.3     1  UNL1        0.0603
      5 C         142.4690  139.6387  164.6594 C.3     1  UNL1        0.0290
      6 C         142.0325  139.9912  166.0506 C.3     1  UNL1        0.0927
      7 C         139.5227  140.3183  168.4150 C.ar    1  UNL1        0.2010
      8 C         139.0862  140.6709  169.8060 C.ar    1  UNL1        0.1643
      9 N         138.1908  139.7406  170.5696 N.pl3   1  UNL1       -0.3401
     10 N         139.5450  141.9537  170.4336 N.ar    1  UNL1       -0.2062
     11 C         140.4404  142.8839  169.6702 C.ar    1  UNL1        0.2014
     12 N         140.8769  142.5314  168.2791 N.ar    1  UNL1       -0.2058
     13 C         140.4181  141.2486  167.6515 C.ar    1  UNL1        0.1705
     14 H         137.8896  138.8987  170.1577 H       1  UNL1        0.1438
     15 H         137.9043  139.9720  171.4826 H       1  UNL1        0.1438
     16 C         137.8397  139.0204  166.9207 C.3     1  UNL1        0.2528
     17 O         139.0639  139.0355  167.7874 O.3     1  UNL1       -0.4658
     18 C         142.1642  139.8385  162.0871 C.ar    1  UNL1        0.1200
     19 N         141.4169  138.9655  161.1231 N.ar    1  UNL1       -0.2309
     20 C         142.2155  138.8845  159.8560 C.ar    1  UNL1        0.0997
     21 C         143.4565  139.7075  160.0368 C.ar    1  UNL1        0.0962
     22 N         143.4248  140.2971  161.4157 N.ar    1  UNL1       -0.3117
     23 C         144.4701  141.1887  162.0176 C.3     1  UNL1        0.1317
     24 C         141.8392  138.1156  158.6242 C.ar    1  UNL1        0.0193
     25 C         140.5246  138.3755  157.9502 C.ar    1  UNL1        0.0038
     26 C         140.1482  137.6066  156.7186 C.ar    1  UNL1        0.0296
     27 C         141.0866  136.5778  156.1607 C.ar    1  UNL1        0.1440
     28 F         140.7103  135.8089  154.9290 F       1  UNL1       -0.2042
     29 C         142.4012  136.3179  156.8347 C.ar    1  UNL1        0.0988
     30 C         142.7775  137.0868  158.0664 C.ar    1  UNL1        0.0077
     31 C         143.3395  135.2891  156.2769 C.3     1  UNL1        0.4207
     32 F         144.2778  134.2603  155.7192 F       1  UNL1       -0.1658
     33 F         144.1421  136.3751  155.6239 F       1  UNL1       -0.1658
     34 F         142.5370  134.2031  156.9299 F       1  UNL1       -0.1658
@<TRIPOS>BOND
     1    16    17    1
     2    17     7    1
     3     7     8   ar
     4     8     9    1
     5     8    10   ar
     6    10    11   ar
     7    11    12   ar
     8    12    13   ar
     9    13     1    1
    10     1     2    1
    11     2     3    1
    12     3     4    1
    13     4    18    1
    14    18    19   ar
    15    19    20   ar
    16    20    24    1
    17    24    25   ar
    18    25    26   ar
    19    26    27   ar
    20    27    28    1
    21    27    29   ar
    22    29    31    1
    23    31    32    1
    24    31    33    1
    25    31    34    1
    26    29    30   ar
    27    20    21   ar
    28    21    22   ar
    29    22    23    1
    30     4     5    1
    31     5     6    1
    32    13     7   ar
    33     6     1    1
    34    22    18   ar
    35    30    24   ar
    36     9    14    1
    37     9    15    1
@<TRIPOS>MOLECULE
*****
 34 37 0 0 0
SMALL
GASTEIGER

@<TRIPOS>ATOM
      1 N         142.7782  139.3238  159.4279 N.pl3   1  UNL1       -0.2907
      2 C         143.4485  138.5812  160.5456 C.3     1  UNL1        0.0927
      3 C         142.8146  138.5392  161.9044 C.3     1  UNL1        0.0290
      4 C         141.5102  139.2396  162.1455 C.3     1  UNL1        0.0603
      5 C         140.8399  139.9822  161.0278 C.3     1  UNL1        0.0290
      6 C         141.4739  140.0242  159.6690 C.3     1  UNL1        0.0927
      7 C         144.2631  140.5363  157.6744 C.ar    1  UNL1        0.2010
      8 C         144.8970  140.5783  156.3156 C.ar    1  UNL1        0.1643
      9 N         145.7480  141.7489  155.9208 N.pl3   1  UNL1       -0.3401
     10 N         144.6801  139.4498  155.3515 N.ar    1  UNL1       -0.2062
     11 C         143.8292  138.2793  155.7462 C.ar    1  UNL1        0.2014
     12 N         143.1952  138.2373  157.1050 N.ar    1  UNL1       -0.2058
     13 C         143.4122  139.3658  158.0691 C.ar    1  UNL1        0.1705
     14 H         145.8904  142.4895  156.5536 H       1  UNL1        0.1438
     15 H         146.1641  141.7764  155.0290 H       1  UNL1        0.1438
     16 C         143.6126  142.8866  158.5703 C.3     1  UNL1        0.2528
     17 O         144.4800  141.6648  158.6384 O.3     1  UNL1       -0.4658
     18 C         140.8763  139.1976  163.5043 C.ar    1  UNL1        0.1200
     19 N         141.3940  139.8721  164.7400 N.ar    1  UNL1       -0.2309
     20 C         140.4510  139.5650  165.8653 C.ar    1  UNL1        0.0997
     21 C         139.3505  138.7007  165.3252 C.ar    1  UNL1        0.0962
     22 N         139.6133  138.4736  163.8659 N.ar    1  UNL1       -0.3117
     23 C         138.7625  137.6646  162.9323 C.3     1  UNL1        0.1317
     24 C         140.5851  140.0390  167.2822 C.ar    1  UNL1        0.0193
     25 C         139.4148  139.9512  168.2163 C.ar    1  UNL1        0.0038
     26 C         139.5487  140.4251  169.6331 C.ar    1  UNL1        0.0296
     27 C         140.8531  140.9870  170.1158 C.ar    1  UNL1        0.1440
     28 F         140.9871  141.4610  171.5326 F       1  UNL1       -0.2042
     29 C         142.0234  141.0749  169.1817 C.ar    1  UNL1        0.0988
     30 C         141.8894  140.6009  167.7648 C.ar    1  UNL1        0.0077
     31 C         143.3277  141.6368  169.6644 C.3     1  UNL1        0.4207
     32 F         144.6321  142.1987  170.1470 F       1  UNL1       -0.1658
     33 F         143.5459  140.4113  170.5014 F       1  UNL1       -0.1658
     34 F         143.1096  142.8622  168.8273 F       1  UNL1       -0.1658
@<TRIPOS>BOND
     1    16    17    1
     2    17     7    1
     3     7     8   ar
     4     8     9    1
     5     8    10   ar
     6    10    11   ar
     7    11    12   ar
     8    12    13   ar
     9    13     1    1
    10     1     2    1
    11     2     3    1
    12     3     4    1
    13     4    18    1
    14    18    19   ar
    15    19    20   ar
    16    20    24    1
    17    24    25   ar
    18    25    26   ar
    19    26    27   ar
    20    27    28    1
    21    27    29   ar
    22    29    31    1
    23    31    32    1
    24    31    33    1
    25    31    34    1
    26    29    30   ar
    27    20    21   ar
    28    21    22   ar
    29    22    23    1
    30     4     5    1
    31     5     6    1
    32    13     7   ar
    33     6     1    1
    34    22    18   ar
    35    30    24   ar
    36     9    14    1
    37     9    15    1
@<TRIPOS>MOLECULE
*****
 34 37 0 0 0
SMALL
GASTEIGER

@<TRIPOS>ATOM
      1 N         141.9411  138.7692  158.9941 N.pl3   1  UNL1       -0.2907
      2 C         142.7589  137.9357  159.9356 C.3     1  UNL1        0.0927
      3 C         143.1225  138.4712  161.2887 C.3     1  UNL1        0.0290
      4 C         142.6682  139.8402  161.7004 C.3     1  UNL1        0.0603
      5 C         141.8503  140.6737  160.7589 C.3     1  UNL1        0.0290
      6 C         141.4867  140.1381  159.4057 C.3     1  UNL1        0.0927
      7 C         142.5917  138.2367  156.5358 C.ar    1  UNL1        0.2010
      8 C         142.2281  137.7012  155.1827 C.ar    1  UNL1        0.1643
      9 N         143.2424  137.7043  154.0775 N.pl3   1  UNL1       -0.3401
     10 N         140.8503  137.1625  154.9347 N.ar    1  UNL1       -0.2062
     11 C         139.8361  137.1594  156.0398 C.ar    1  UNL1        0.2014
     12 N         140.1997  137.6950  157.3929 N.ar    1  UNL1       -0.2058
     13 C         141.5775  138.2336  157.6409 C.ar    1  UNL1        0.1705
     14 H         144.1467  138.0578  154.2402 H       1  UNL1        0.1438
     15 H         143.0037  137.3528  153.1894 H       1  UNL1        0.1438
     16 C         144.2152  140.2545  156.7424 C.3     1  UNL1        0.2528
     17 O         143.9695  138.7754  156.7838 O.3     1  UNL1       -0.4658
     18 C         143.0318  140.3757  163.0535 C.ar    1  UNL1        0.1200
     19 N         142.2918  140.1165  164.3323 N.ar    1  UNL1       -0.2309
     20 C         143.0018  140.8450  165.4346 C.ar    1  UNL1        0.0997
     21 C         144.1807  141.5545  164.8371 C.ar    1  UNL1        0.0962
     22 N         144.1992  141.2644  163.3656 N.ar    1  UNL1       -0.3117
     23 C         145.2080  141.7737  162.3792 C.3     1  UNL1        0.1317
     24 C         142.6030  140.8612  166.8805 C.ar    1  UNL1        0.0193
     25 C         142.7147  139.6121  167.7034 C.ar    1  UNL1        0.0038
     26 C         142.3160  139.6282  169.1493 C.ar    1  UNL1        0.0296
     27 C         141.8054  140.8936  169.7724 C.ar    1  UNL1        0.1440
     28 F         141.4067  140.9098  171.2183 F       1  UNL1       -0.2042
     29 C         141.6937  142.1428  168.9495 C.ar    1  UNL1        0.0988
     30 C         142.0925  142.1266  167.5036 C.ar    1  UNL1        0.0077
     31 C         141.1832  143.4081  169.5726 C.3     1  UNL1        0.4207
     32 F         140.6727  144.6735  170.1957 F       1  UNL1       -0.1658
     33 F         139.8985  143.2644  168.8119 F       1  UNL1       -0.1658
     34 F         142.4680  143.5518  170.3334 F       1  UNL1       -0.1658
@<TRIPOS>BOND
     1    16    17    1
     2    17     7    1
     3     7     8   ar
     4     8     9    1
     5     8    10   ar
     6    10    11   ar
     7    11    12   ar
     8    12    13   ar
     9    13     1    1
    10     1     2    1
    11     2     3    1
    12     3     4    1
    13     4    18    1
    14    18    19   ar
    15    19    20   ar
    16    20    24    1
    17    24    25   ar
    18    25    26   ar
    19    26    27   ar
    20    27    28    1
    21    27    29   ar
    22    29    31    1
    23    31    32    1
    24    31    33    1
    25    31    34    1
    26    29    30   ar
    27    20    21   ar
    28    21    22   ar
    29    22    23    1
    30     4     5    1
    31     5     6    1
    32    13     7   ar
    33     6     1    1
    34    22    18   ar
    35    30    24   ar
    36     9    14    1
    37     9    15    1
@<TRIPOS>MOLECULE
*****
 34 37 0 0 0
SMALL
GASTEIGER

@<TRIPOS>ATOM
      1 N         142.8851  139.7299  159.4590 N.pl3   1  UNL1       -0.2907
      2 C         142.1866  141.0383  159.6827 C.3     1  UNL1        0.0927
      3 C         142.2792  141.7196  161.0158 C.3     1  UNL1        0.0290
      4 C         143.0703  141.0924  162.1253 C.3     1  UNL1        0.0603
      5 C         143.7688  139.7840  161.9016 C.3     1  UNL1        0.0290
      6 C         143.6762  139.1027  160.5684 C.3     1  UNL1        0.0927
      7 C         141.5884  138.2199  157.7890 C.ar    1  UNL1        0.2010
      8 C         141.4958  137.5387  156.4559 C.ar    1  UNL1        0.1643
      9 N         140.2917  136.7099  156.1191 N.pl3   1  UNL1       -0.3401
     10 N         142.6073  137.6861  155.4595 N.ar    1  UNL1       -0.2062
     11 C         143.8114  138.5148  155.7962 C.ar    1  UNL1        0.2014
     12 N         143.9040  139.1960  157.1293 N.ar    1  UNL1       -0.2058
     13 C         142.7925  139.0486  158.1258 C.ar    1  UNL1        0.1705
     14 H         139.5622  136.6131  156.7731 H       1  UNL1        0.1438
     15 H         140.2309  136.2628  155.2441 H       1  UNL1        0.1438
     16 C         139.3252  139.0333  158.7720 C.3     1  UNL1        0.2528
     17 O         140.4769  138.0724  158.7855 O.3     1  UNL1       -0.4658
     18 C         143.1629  141.7737  163.4584 C.ar    1  UNL1        0.1200
     19 N         142.6619  141.2296  164.7633 N.ar    1  UNL1       -0.2309
     20 C         142.9621  142.2383  165.8321 C.ar    1  UNL1        0.0997
     21 C         143.6488  143.4060  165.1877 C.ar    1  UNL1        0.0962
     22 N         143.7728  143.1188  163.7207 N.ar    1  UNL1       -0.3117
     23 C         144.3972  144.0188  162.6959 C.3     1  UNL1        0.1317
     24 C         142.6334  142.1031  167.2894 C.ar    1  UNL1        0.0193
     25 C         143.6555  142.4661  168.3255 C.ar    1  UNL1        0.0038
     26 C         143.3269  142.3310  169.7828 C.ar    1  UNL1        0.0296
     27 C         141.9761  141.8329  170.2040 C.ar    1  UNL1        0.1440
     28 F         141.6474  141.6977  171.6612 F       1  UNL1       -0.2042
     29 C         140.9540  141.4699  169.1678 C.ar    1  UNL1        0.0988
     30 C         141.2827  141.6050  167.7105 C.ar    1  UNL1        0.0077
     31 C         139.6033  140.9718  169.5890 C.3     1  UNL1        0.4207
     32 F         138.2526  140.4737  170.0101 F       1  UNL1       -0.1658
     33 F         139.8994  139.6407  168.9642 F       1  UNL1       -0.1658
     34 F         139.3072  142.3029  170.2137 F       1  UNL1       -0.1658
@<TRIPOS>BOND
     1    16    17    1
     2    17     7    1
     3     7     8   ar
     4     8     9    1
     5     8    10   ar
     6    10    11   ar
     7    11    12   ar
     8    12    13   ar
     9    13     1    1
    10     1     2    1
    11     2     3    1
    12     3     4    1
    13     4    18    1
    14    18    19   ar
    15    19    20   ar
    16    20    24    1
    17    24    25   ar
    18    25    26   ar
    19    26    27   ar
    20    27    28    1
    21    27    29   ar
    22    29    31    1
    23    31    32    1
    24    31    33    1
    25    31    34    1
    26    29    30   ar
    27    20    21   ar
    28    21    22   ar
    29    22    23    1
    30     4     5    1
    31     5     6    1
    32    13     7   ar
    33     6     1    1
    34    22    18   ar
    35    30    24   ar
    36     9    14    1
    37     9    15    1
@<TRIPOS>MOLECULE
*****
 34 37 0 0 0
SMALL
GASTEIGER

@<TRIPOS>ATOM
      1 N         139.6571  142.2706  159.2576 N.pl3   1  UNL1       -0.2907
      2 C         139.2559  143.0627  160.4666 C.3     1  UNL1        0.0927
      3 C         140.0954  143.0125  161.7086 C.3     1  UNL1        0.0290
      4 C         141.3363  142.1703  161.7417 C.3     1  UNL1        0.0603
      5 C         141.7375  141.3782  160.5327 C.3     1  UNL1        0.0290
      6 C         140.8979  141.4284  159.2906 C.3     1  UNL1        0.0927
      7 C         137.9271  141.1657  157.6650 C.ar    1  UNL1        0.2010
      8 C         137.0875  141.2160  156.4230 C.ar    1  UNL1        0.1643
      9 N         136.1971  140.0608  156.0724 N.pl3   1  UNL1       -0.3401
     10 N         137.1384  142.4213  155.5316 N.ar    1  UNL1       -0.2062
     11 C         138.0288  143.5763  155.8822 C.ar    1  UNL1        0.2014
     12 N         138.8683  143.5261  157.1241 N.ar    1  UNL1       -0.2058
     13 C         138.8175  142.3208  158.0156 C.ar    1  UNL1        0.1705
     14 H         136.1637  139.2697  156.6575 H       1  UNL1        0.1438
     15 H         135.6460  140.0938  155.2572 H       1  UNL1        0.1438
     16 C         137.2598  140.0616  159.9201 C.3     1  UNL1        0.2528
     17 O         137.8762  139.9604  158.5564 O.3     1  UNL1       -0.4658
     18 C         142.1758  142.1201  162.9837 C.ar    1  UNL1        0.1200
     19 N         141.7384  141.6064  164.3233 N.ar    1  UNL1       -0.2309
     20 C         142.8924  141.7437  165.2717 C.ar    1  UNL1        0.0997
     21 C         144.0431  142.3422  164.5181 C.ar    1  UNL1        0.0962
     22 N         143.6002  142.5748  163.1041 N.ar    1  UNL1       -0.3117
     23 C         144.4350  143.1595  162.0036 C.3     1  UNL1        0.1317
     24 C         142.8953  141.3513  166.7195 C.ar    1  UNL1        0.0193
     25 C         142.6112  139.9318  167.1125 C.ar    1  UNL1        0.0038
     26 C         142.6140  139.5394  168.5601 C.ar    1  UNL1        0.0296
     27 C         142.9011  140.5665  169.6151 C.ar    1  UNL1        0.1440
     28 F         142.9039  140.1742  171.0628 F       1  UNL1       -0.2042
     29 C         143.1851  141.9860  169.2221 C.ar    1  UNL1        0.0988
     30 C         143.1823  142.3784  167.7744 C.ar    1  UNL1        0.0077
     31 C         143.4721  143.0131  170.2770 C.3     1  UNL1        0.4207
     32 F         143.7591  144.0402  171.3318 F       1  UNL1       -0.1658
     33 F         144.9238  142.6366  170.2486 F       1  UNL1       -0.1658
     34 F         142.0204  143.3896  170.3053 F       1  UNL1       -0.1658
@<TRIPOS>BOND
     1    16    17    1
     2    17     7    1
     3     7     8   ar
     4     8     9    1
     5     8    10   ar
     6    10    11   ar
     7    11    12   ar
     8    12    13   ar
     9    13     1    1
    10     1     2    1
    11     2     3    1
    12     3     4    1
    13     4    18    1
    14    18    19   ar
    15    19    20   ar
    16    20    24    1
    17    24    25   ar
    18    25    26   ar
    19    26    27   ar
    20    27    28    1
    21    27    29   ar
    22    29    31    1
    23    31    32    1
    24    31    33    1
    25    31    34    1
    26    29    30   ar
    27    20    21   ar
    28    21    22   ar
    29    22    23    1
    30     4     5    1
    31     5     6    1
    32    13     7   ar
    33     6     1    1
    34    22    18   ar
    35    30    24   ar
    36     9    14    1
    37     9    15    1
@<TRIPOS>MOLECULE
*****
 34 37 0 0 0
SMALL
GASTEIGER

@<TRIPOS>ATOM
      1 N         140.0261  143.3601  158.9442 N.pl3   1  UNL1       -0.2907
      2 C         139.9879  144.2841  160.1252 C.3     1  UNL1        0.0927
      3 C         140.7909  143.9671  161.3518 C.3     1  UNL1        0.0290
      4 C         141.6322  142.7259  161.3974 C.3     1  UNL1        0.0603
      5 C         141.6704  141.8019  160.2164 C.3     1  UNL1        0.0290
      6 C         140.8673  142.1190  158.9898 C.3     1  UNL1        0.0927
      7 C         139.5920  144.8534  156.8629 C.ar    1  UNL1        0.2010
      8 C         138.7889  145.1705  155.6363 C.ar    1  UNL1        0.1643
      9 N         139.1578  146.3467  154.7816 N.pl3   1  UNL1       -0.3401
     10 N         137.6170  144.3113  155.2643 N.ar    1  UNL1       -0.2062
     11 C         137.2481  143.1351  156.1189 C.ar    1  UNL1        0.2014
     12 N         138.0511  142.8180  157.3455 N.ar    1  UNL1       -0.2058
     13 C         139.2231  143.6772  157.7175 C.ar    1  UNL1        0.1705
     14 H         139.9270  146.9107  155.0258 H       1  UNL1        0.1438
     15 H         138.6307  146.5548  153.9766 H       1  UNL1        0.1438
     16 C         142.1394  145.3525  156.7573 C.3     1  UNL1        0.2528
     17 O         140.7639  145.7126  157.2349 O.3     1  UNL1       -0.4658
     18 C         142.4352  142.4089  162.6240 C.ar    1  UNL1        0.1200
     19 N         141.8863  141.9555  163.9443 N.ar    1  UNL1       -0.2309
     20 C         143.0399  141.7560  164.8820 C.ar    1  UNL1        0.0997
     21 C         144.3018  142.0860  164.1413 C.ar    1  UNL1        0.0962
     22 N         143.9281  142.4895  162.7458 N.ar    1  UNL1       -0.3117
     23 C         144.8801  142.9014  161.6622 C.3     1  UNL1        0.1317
     24 C         142.9478  141.3055  166.3098 C.ar    1  UNL1        0.0193
     25 C         142.6587  139.8679  166.6256 C.ar    1  UNL1        0.0038
     26 C         142.5666  139.4173  168.0532 C.ar    1  UNL1        0.0296
     27 C         142.7636  140.4045  169.1654 C.ar    1  UNL1        0.1440
     28 F         142.6716  139.9540  170.5932 F       1  UNL1       -0.2042
     29 C         143.0527  141.8421  168.8497 C.ar    1  UNL1        0.0988
     30 C         143.1448  142.2926  167.4219 C.ar    1  UNL1        0.0077
     31 C         143.2498  142.8292  169.9618 C.3     1  UNL1        0.4207
     32 F         143.4468  143.8163  171.0739 F       1  UNL1       -0.1658
     33 F         144.7206  142.5350  169.9624 F       1  UNL1       -0.1658
     34 F         141.7789  143.1235  169.9612 F       1  UNL1       -0.1658
@<TRIPOS>BOND
     1    16    17    1
     2    17     7    1
     3     7     8   ar
     4     8     9    1
     5     8    10   ar
     6    10    11   ar
     7    11    12   ar
     8    12    13   ar
     9    13     1    1
    10     1     2    1
    11     2     3    1
    12     3     4    1
    13     4    18    1
    14    18    19   ar
    15    19    20   ar
    16    20    24    1
    17    24    25   ar
    18    25    26   ar
    19    26    27   ar
    20    27    28    1
    21    27    29   ar
    22    29    31    1
    23    31    32    1
    24    31    33    1
    25    31    34    1
    26    29    30   ar
    27    20    21   ar
    28    21    22   ar
    29    22    23    1
    30     4     5    1
    31     5     6    1
    32    13     7   ar
    33     6     1    1
    34    22    18   ar
    35    30    24   ar
    36     9    14    1
    37     9    15    1
