@<TRIPOS>MOLECULE
*****
 34 37 0 0 0
SMALL
GASTEIGER

@<TRIPOS>ATOM
      1 C         140.3417  145.7884  160.4107 C.3     1  UNL1        0.1747
      2 C         140.1370  144.9828  161.6593 C.2     1  UNL1        0.2425
      3 O         138.9900  144.0206  161.7515 O.2     1  UNL1       -0.2733
      4 N         141.0794  145.1394  162.8158 N.am    1  UNL1       -0.3018
      5 H         141.8322  145.7709  162.7553 H       1  UNL1        0.1495
      6 C         140.8746  144.3338  164.0644 C.3     1  UNL1        0.1035
      7 C         141.7001  143.3493  164.8388 C.3     1  UNL1        0.0933
      8 N         140.5852  143.1944  165.8303 N.3     1  UNL1       -0.2711
      9 C         139.7598  144.1788  165.0559 C.3     1  UNL1        0.0933
     10 C         140.3805  142.3888  167.0789 C.3     1  UNL1        0.0576
     11 C         140.5827  143.0238  168.4227 C.3     1  UNL1        0.0160
     12 C         140.3779  142.2183  169.6713 C.3     1  UNL1        0.0039
     13 C         139.9710  140.7776  169.5762 C.3     1  UNL1        0.0294
     14 C         139.7688  140.1426  168.2324 C.3     1  UNL1        0.0039
     15 C         139.9736  140.9482  166.9837 C.3     1  UNL1        0.0160
     16 C         139.7663  139.9721  170.8248 C.3     1  UNL1        0.1371
     17 O         140.5449  140.2992  172.0645 O.3     1  UNL1       -0.3820
     18 H         141.4864  140.1236  171.9107 H       1  UNL1        0.2104
     19 N         141.5248  145.5177  159.5290 N.pl3   1  UNL1       -0.3093
     20 H         142.0991  146.2609  159.2340 H       1  UNL1        0.1487
     21 C         141.6350  141.0283  156.7517 C.3     1  UNL1        0.1537
     22 N         141.8834  142.0511  157.8204 N.ar    1  UNL1       -0.2476
     23 N         141.3289  143.4445  157.8531 N.ar    1  UNL1       -0.1544
     24 C         141.8327  144.1146  159.0969 C.ar    1  UNL1        0.1500
     25 C         142.6986  143.1355  159.8328 C.ar    1  UNL1        0.0503
     26 C         143.4626  143.2404  161.1194 C.ar    1  UNL1        0.0082
     27 C         144.2578  142.0700  161.6170 C.ar    1  UNL1        0.0716
     28 C         144.2891  140.7947  160.8280 C.ar    1  UNL1        0.0054
     29 C         143.5251  140.6897  159.5414 C.ar    1  UNL1        0.0188
     30 C         142.7299  141.8601  159.0439 C.ar    1  UNL1        0.0807
     31 C         145.0218  142.1749  162.9036 C.3     1  UNL1        0.4186
     32 F         145.7858  142.2797  164.1902 F       1  UNL1       -0.1659
     33 F         145.2863  140.6989  162.8668 F       1  UNL1       -0.1659
     34 F         144.7573  143.6509  162.9404 F       1  UNL1       -0.1659
@<TRIPOS>BOND
     1    21    22    1
     2    22    23   ar
     3    23    24   ar
     4    24    19    1
     5    19     1    1
     6     1     2    1
     7     2     3    2
     8     2     4   am
     9     4     6    1
    10     6     7    1
    11     7     8    1
    12    10     8    1
    13    10    11    1
    14    11    12    1
    15    12    13    1
    16    13    16    1
    17    16    17    1
    18    13    14    1
    19    14    15    1
    20     8     9    1
    21    24    25   ar
    22    25    26   ar
    23    26    27   ar
    24    27    31    1
    25    31    32    1
    26    31    33    1
    27    31    34    1
    28    27    28   ar
    29    28    29   ar
    30    29    30   ar
    31    30    22   ar
    32     9     6    1
    33    30    25   ar
    34    15    10    1
    35    19    20    1
    36     4     5    1
    37    17    18    1
@<TRIPOS>MOLECULE
*****
 34 37 0 0 0
SMALL
GASTEIGER

@<TRIPOS>ATOM
      1 C         138.5288  139.4089  159.8172 C.3     1  UNL1        0.1747
      2 C         139.1702  139.4983  161.1702 C.2     1  UNL1        0.2425
      3 O         140.6645  139.5505  161.2899 O.2     1  UNL1       -0.2733
      4 N         138.3172  139.5355  162.4035 N.am    1  UNL1       -0.3018
      5 H         137.3365  139.5012  162.3249 H       1  UNL1        0.1495
      6 C         138.9586  139.6249  163.7565 C.3     1  UNL1        0.1035
      7 C         139.6058  140.7187  164.5534 C.3     1  UNL1        0.0933
      8 N         139.8658  139.7514  165.6699 N.3     1  UNL1       -0.2711
      9 C         139.2186  138.6577  164.8731 C.3     1  UNL1        0.0933
     10 C         140.5072  139.8409  167.0230 C.3     1  UNL1        0.0576
     11 C         139.6680  140.1245  168.2335 C.3     1  UNL1        0.0160
     12 C         140.3094  140.2139  169.5864 C.3     1  UNL1        0.0039
     13 C         141.7900  140.0197  169.7290 C.3     1  UNL1        0.0294
     14 C         142.6291  139.7360  168.5184 C.3     1  UNL1        0.0039
     15 C         141.9877  139.6466  167.1654 C.3     1  UNL1        0.0160
     16 C         142.4312  140.1091  171.0820 C.3     1  UNL1        0.1371
     17 O         143.8487  139.6567  171.2716 O.3     1  UNL1       -0.3820
     18 H         143.9043  138.6989  171.1287 H       1  UNL1        0.2104
     19 N         138.0045  140.6472  159.1524 N.pl3   1  UNL1       -0.3093
     20 H         137.1072  140.6461  158.7473 H       1  UNL1        0.1487
     21 C         141.2928  144.4230  157.4759 C.3     1  UNL1        0.1537
     22 N         140.3587  143.6227  158.3344 N.ar    1  UNL1       -0.2476
     23 N         139.6898  142.3368  157.9483 N.ar    1  UNL1       -0.1544
     24 C         138.8473  141.8871  159.1050 C.ar    1  UNL1        0.1500
     25 C         138.9954  142.8951  160.2059 C.ar    1  UNL1        0.0503
     26 C         138.4005  142.9748  161.5805 C.ar    1  UNL1        0.0082
     27 C         138.7396  144.1271  162.4789 C.ar    1  UNL1        0.0716
     28 C         139.6738  145.1997  162.0026 C.ar    1  UNL1        0.0054
     29 C         140.2687  145.1200  160.6280 C.ar    1  UNL1        0.0188
     30 C         139.9296  143.9677  159.7297 C.ar    1  UNL1        0.0807
     31 C         138.1447  144.2068  163.8536 C.3     1  UNL1        0.4186
     32 F         137.5497  144.2865  165.2282 F       1  UNL1       -0.1659
     33 F         137.2269  143.0675  163.5224 F       1  UNL1       -0.1659
     34 F         139.0624  145.3461  164.1848 F       1  UNL1       -0.1659
@<TRIPOS>BOND
     1    21    22    1
     2    22    23   ar
     3    23    24   ar
     4    24    19    1
     5    19     1    1
     6     1     2    1
     7     2     3    2
     8     2     4   am
     9     4     6    1
    10     6     7    1
    11     7     8    1
    12    10     8    1
    13    10    11    1
    14    11    12    1
    15    12    13    1
    16    13    16    1
    17    16    17    1
    18    13    14    1
    19    14    15    1
    20     8     9    1
    21    24    25   ar
    22    25    26   ar
    23    26    27   ar
    24    27    31    1
    25    31    32    1
    26    31    33    1
    27    31    34    1
    28    27    28   ar
    29    28    29   ar
    30    29    30   ar
    31    30    22   ar
    32     9     6    1
    33    30    25   ar
    34    15    10    1
    35    19    20    1
    36     4     5    1
    37    17    18    1
@<TRIPOS>MOLECULE
*****
 34 37 0 0 0
SMALL
GASTEIGER

@<TRIPOS>ATOM
      1 C         142.9942  137.2479  159.8636 C.3     1  UNL1        0.1747
      2 C         143.1010  138.0217  161.1442 C.2     1  UNL1        0.2425
      3 O         144.0011  139.2189  161.2242 O.2     1  UNL1       -0.2733
      4 N         142.3076  137.5983  162.3446 N.am    1  UNL1       -0.3018
      5 H         141.7168  136.8125  162.2921 H       1  UNL1        0.1495
      6 C         142.4144  138.3721  163.6252 C.3     1  UNL1        0.1035
      7 C         143.5378  138.7549  164.5426 C.3     1  UNL1        0.0933
      8 N         142.5655  139.4664  165.4362 N.3     1  UNL1       -0.2711
      9 C         141.4422  139.0835  164.5188 C.3     1  UNL1        0.0933
     10 C         142.6723  140.2402  166.7167 C.3     1  UNL1        0.0576
     11 C         142.8257  141.7319  166.6811 C.3     1  UNL1        0.0160
     12 C         142.9325  142.5057  167.9615 C.3     1  UNL1        0.0039
     13 C         142.8859  141.7878  169.2779 C.3     1  UNL1        0.0294
     14 C         142.7324  140.2961  169.3135 C.3     1  UNL1        0.0039
     15 C         142.6257  139.5223  168.0330 C.3     1  UNL1        0.0160
     16 C         142.9926  142.5617  170.5583 C.3     1  UNL1        0.1371
     17 O         142.0575  142.2666  171.6933 O.3     1  UNL1       -0.3820
     18 H         141.1524  142.5024  171.4362 H       1  UNL1        0.2104
     19 N         142.9434  137.9728  158.5512 N.pl3   1  UNL1       -0.3093
     20 H         143.4389  138.8155  158.4349 H       1  UNL1        0.1487
     21 C         139.2831  137.4174  154.7864 C.3     1  UNL1        0.1537
     22 N         140.4553  137.1583  155.6858 N.ar    1  UNL1       -0.2476
     23 N         140.9480  138.0642  156.7751 N.ar    1  UNL1       -0.1544
     24 C         142.1377  137.4136  157.4163 C.ar    1  UNL1        0.1500
     25 C         142.3803  136.1056  156.7233 C.ar    1  UNL1        0.0503
     26 C         143.4137  135.0378  156.9280 C.ar    1  UNL1        0.0082
     27 C         143.4073  133.8123  156.0631 C.ar    1  UNL1        0.0716
     28 C         142.3675  133.6545  154.9936 C.ar    1  UNL1        0.0054
     29 C         141.3341  134.7223  154.7889 C.ar    1  UNL1        0.0188
     30 C         141.3405  135.9478  155.6538 C.ar    1  UNL1        0.0807
     31 C         144.4408  132.7445  156.2678 C.3     1  UNL1        0.4186
     32 F         145.4742  131.6767  156.4725 F       1  UNL1       -0.1659
     33 F         144.8271  133.3691  157.5756 F       1  UNL1       -0.1659
     34 F         144.0545  132.1199  154.9599 F       1  UNL1       -0.1659
@<TRIPOS>BOND
     1    21    22    1
     2    22    23   ar
     3    23    24   ar
     4    24    19    1
     5    19     1    1
     6     1     2    1
     7     2     3    2
     8     2     4   am
     9     4     6    1
    10     6     7    1
    11     7     8    1
    12    10     8    1
    13    10    11    1
    14    11    12    1
    15    12    13    1
    16    13    16    1
    17    16    17    1
    18    13    14    1
    19    14    15    1
    20     8     9    1
    21    24    25   ar
    22    25    26   ar
    23    26    27   ar
    24    27    31    1
    25    31    32    1
    26    31    33    1
    27    31    34    1
    28    27    28   ar
    29    28    29   ar
    30    29    30   ar
    31    30    22   ar
    32     9     6    1
    33    30    25   ar
    34    15    10    1
    35    19    20    1
    36     4     5    1
    37    17    18    1
@<TRIPOS>MOLECULE
*****
 34 37 0 0 0
SMALL
GASTEIGER

@<TRIPOS>ATOM
      1 C         140.0708  138.2929  158.1297 C.3     1  UNL1        0.1747
      2 C         140.0428  138.6726  159.5806 C.2     1  UNL1        0.2425
      3 O         140.7659  139.9007  160.0485 O.2     1  UNL1       -0.2733
      4 N         139.2916  137.8243  160.5634 N.am    1  UNL1       -0.3018
      5 H         138.8170  137.0182  160.2562 H       1  UNL1        0.1495
      6 C         139.2636  138.2040  162.0143 C.3     1  UNL1        0.1035
      7 C         138.5511  139.2464  162.8243 C.3     1  UNL1        0.0933
      8 N         139.2239  138.7411  164.0661 N.3     1  UNL1       -0.2711
      9 C         139.9363  137.6988  163.2561 C.3     1  UNL1        0.0933
     10 C         139.1958  139.1209  165.5170 C.3     1  UNL1        0.0576
     11 C         140.3036  139.9495  166.0969 C.3     1  UNL1        0.0160
     12 C         140.2756  140.3292  167.5477 C.3     1  UNL1        0.0039
     13 C         139.1398  139.8804  168.4187 C.3     1  UNL1        0.0294
     14 C         138.0320  139.0518  167.8388 C.3     1  UNL1        0.0039
     15 C         138.0601  138.6720  166.3879 C.3     1  UNL1        0.0160
     16 C         139.1118  140.2601  169.8695 C.3     1  UNL1        0.1371
     17 O         139.8657  139.4402  170.8742 O.3     1  UNL1       -0.3820
     18 H         139.4718  138.5555  170.9305 H       1  UNL1        0.2104
     19 N         141.3511  137.8291  157.5004 N.pl3   1  UNL1       -0.3093
     20 H         142.2155  138.1218  157.8698 H       1  UNL1        0.1487
     21 C         140.1494  135.7724  152.7880 C.3     1  UNL1        0.1537
     22 N         140.7620  135.9741  154.1423 N.ar    1  UNL1       -0.2476
     23 N         140.4904  137.1202  155.0710 N.ar    1  UNL1       -0.1544
     24 C         141.3144  136.9194  156.3083 C.ar    1  UNL1        0.1500
     25 C         142.0951  135.6492  156.1442 C.ar    1  UNL1        0.0503
     26 C         143.0728  134.9491  157.0408 C.ar    1  UNL1        0.0082
     27 C         143.7091  133.6647  156.5987 C.ar    1  UNL1        0.0716
     28 C         143.3677  133.0804  155.2600 C.ar    1  UNL1        0.0054
     29 C         142.3900  133.7805  154.3634 C.ar    1  UNL1        0.0188
     30 C         141.7537  135.0649  154.8055 C.ar    1  UNL1        0.0807
     31 C         144.6868  132.9645  157.4954 C.3     1  UNL1        0.4186
     32 F         145.6645  132.2644  158.3919 F       1  UNL1       -0.1659
     33 F         145.1967  132.1775  156.3247 F       1  UNL1       -0.1659
     34 F         144.1769  133.7515  158.6661 F       1  UNL1       -0.1659
@<TRIPOS>BOND
     1    21    22    1
     2    22    23   ar
     3    23    24   ar
     4    24    19    1
     5    19     1    1
     6     1     2    1
     7     2     3    2
     8     2     4   am
     9     4     6    1
    10     6     7    1
    11     7     8    1
    12    10     8    1
    13    10    11    1
    14    11    12    1
    15    12    13    1
    16    13    16    1
    17    16    17    1
    18    13    14    1
    19    14    15    1
    20     8     9    1
    21    24    25   ar
    22    25    26   ar
    23    26    27   ar
    24    27    31    1
    25    31    32    1
    26    31    33    1
    27    31    34    1
    28    27    28   ar
    29    28    29   ar
    30    29    30   ar
    31    30    22   ar
    32     9     6    1
    33    30    25   ar
    34    15    10    1
    35    19    20    1
    36     4     5    1
    37    17    18    1
@<TRIPOS>MOLECULE
*****
 34 37 0 0 0
SMALL
GASTEIGER

@<TRIPOS>ATOM
      1 C         142.3680  138.3330  158.8065 C.3     1  UNL1        0.1747
      2 C         142.0383  138.6754  160.2293 C.2     1  UNL1        0.2425
      3 O         140.8776  139.5751  160.5345 O.2     1  UNL1       -0.2733
      4 N         142.8694  138.1179  161.3466 N.am    1  UNL1       -0.3018
      5 H         143.6312  137.5274  161.1463 H       1  UNL1        0.1495
      6 C         142.5397  138.4603  162.7693 C.3     1  UNL1        0.1035
      7 C         141.5419  137.9671  163.7751 C.3     1  UNL1        0.0933
      8 N         142.0733  138.9444  164.7814 N.3     1  UNL1       -0.2711
      9 C         143.0710  139.4375  163.7756 C.3     1  UNL1        0.0933
     10 C         141.7436  139.2867  166.2041 C.3     1  UNL1        0.0576
     11 C         142.7783  139.1136  167.2763 C.3     1  UNL1        0.0160
     12 C         142.4486  139.4559  168.6989 C.3     1  UNL1        0.0039
     13 C         141.0842  139.9714  169.0495 C.3     1  UNL1        0.0294
     14 C         140.0496  140.1445  167.9774 C.3     1  UNL1        0.0039
     15 C         140.3793  139.8022  166.5546 C.3     1  UNL1        0.0160
     16 C         140.7547  140.3137  170.4722 C.3     1  UNL1        0.1371
     17 O         139.7653  139.4825  171.2339 O.3     1  UNL1       -0.3820
     18 H         138.8862  139.5805  170.8356 H       1  UNL1        0.2104
     19 N         143.0919  137.0578  158.4904 N.pl3   1  UNL1       -0.3093
     20 H         143.6796  136.6453  159.1640 H       1  UNL1        0.1487
     21 C         141.8930  136.2800  153.4073 C.3     1  UNL1        0.1537
     22 N         142.3693  136.0535  154.8115 N.ar    1  UNL1       -0.2476
     23 N         142.3549  137.0628  155.9210 N.ar    1  UNL1       -0.1544
     24 C         142.9204  136.4110  157.1479 C.ar    1  UNL1        0.1500
     25 C         143.2842  134.9988  156.7967 C.ar    1  UNL1        0.0503
     26 C         143.8816  133.8855  157.6052 C.ar    1  UNL1        0.0082
     27 C         144.1384  132.5513  156.9697 C.ar    1  UNL1        0.0716
     28 C         143.7978  132.3304  155.5257 C.ar    1  UNL1        0.0054
     29 C         143.2004  133.4436  154.7172 C.ar    1  UNL1        0.0188
     30 C         142.9436  134.7778  155.3527 C.ar    1  UNL1        0.0807
     31 C         144.7358  131.4380  157.7782 C.3     1  UNL1        0.4186
     32 F         145.3332  130.3247  158.5867 F       1  UNL1       -0.1659
     33 F         143.5490  130.5752  157.4670 F       1  UNL1       -0.1659
     34 F         145.9227  132.3008  158.0895 F       1  UNL1       -0.1659
@<TRIPOS>BOND
     1    21    22    1
     2    22    23   ar
     3    23    24   ar
     4    24    19    1
     5    19     1    1
     6     1     2    1
     7     2     3    2
     8     2     4   am
     9     4     6    1
    10     6     7    1
    11     7     8    1
    12    10     8    1
    13    10    11    1
    14    11    12    1
    15    12    13    1
    16    13    16    1
    17    16    17    1
    18    13    14    1
    19    14    15    1
    20     8     9    1
    21    24    25   ar
    22    25    26   ar
    23    26    27   ar
    24    27    31    1
    25    31    32    1
    26    31    33    1
    27    31    34    1
    28    27    28   ar
    29    28    29   ar
    30    29    30   ar
    31    30    22   ar
    32     9     6    1
    33    30    25   ar
    34    15    10    1
    35    19    20    1
    36     4     5    1
    37    17    18    1
@<TRIPOS>MOLECULE
*****
 34 37 0 0 0
SMALL
GASTEIGER

@<TRIPOS>ATOM
      1 C         143.5316  138.5300  159.9427 C.3     1  UNL1        0.1747
      2 C         143.3123  139.1191  161.3046 C.2     1  UNL1        0.2425
      3 O         142.9322  140.5634  161.4447 O.2     1  UNL1       -0.2733
      4 N         143.4733  138.2640  162.5264 N.am    1  UNL1       -0.3018
      5 H         143.7227  137.3160  162.4344 H       1  UNL1        0.1495
      6 C         143.2540  138.8531  163.8883 C.3     1  UNL1        0.1035
      7 C         144.1420  139.4382  164.9463 C.3     1  UNL1        0.0933
      8 N         142.9441  139.6863  165.8144 N.3     1  UNL1       -0.2711
      9 C         142.0563  139.1012  164.7564 C.3     1  UNL1        0.0933
     10 C         142.7249  140.2755  167.1763 C.3     1  UNL1        0.0576
     11 C         142.7021  141.7647  167.3545 C.3     1  UNL1        0.0160
     12 C         142.4829  142.3538  168.7163 C.3     1  UNL1        0.0039
     13 C         142.2865  141.4538  169.9002 C.3     1  UNL1        0.0294
     14 C         142.3092  139.9646  169.7220 C.3     1  UNL1        0.0039
     15 C         142.5285  139.3754  168.3601 C.3     1  UNL1        0.0160
     16 C         142.0673  142.0430  171.2620 C.3     1  UNL1        0.1371
     17 O         140.6828  142.1131  171.8350 O.3     1  UNL1       -0.3820
     18 H         140.1444  142.7224  171.3060 H       1  UNL1        0.2104
     19 N         142.4112  137.8177  159.2444 N.pl3   1  UNL1       -0.3093
     20 H         142.5253  136.8829  158.9573 H       1  UNL1        0.1487
     21 C         138.5033  140.4014  156.8084 C.3     1  UNL1        0.1537
     22 N         139.3208  139.7173  157.8638 N.ar    1  UNL1       -0.2476
     23 N         140.6723  139.0969  157.6680 N.ar    1  UNL1       -0.1544
     24 C         141.1170  138.5297  158.9835 C.ar    1  UNL1        0.1500
     25 C         140.0402  138.7995  159.9923 C.ar    1  UNL1        0.0503
     26 C         139.9271  138.4717  161.4517 C.ar    1  UNL1        0.0082
     27 C         138.7040  138.8779  162.2190 C.ar    1  UNL1        0.0716
     28 C         137.5938  139.6118  161.5270 C.ar    1  UNL1        0.0054
     29 C         137.7069  139.9397  160.0676 C.ar    1  UNL1        0.0188
     30 C         138.9301  139.5335  159.3003 C.ar    1  UNL1        0.0807
     31 C         138.5909  138.5500  163.6784 C.3     1  UNL1        0.4186
     32 F         138.4778  138.2223  165.1377 F       1  UNL1       -0.1659
     33 F         137.9972  139.9032  163.9363 F       1  UNL1       -0.1659
     34 F         139.1845  137.1969  163.4205 F       1  UNL1       -0.1659
@<TRIPOS>BOND
     1    21    22    1
     2    22    23   ar
     3    23    24   ar
     4    24    19    1
     5    19     1    1
     6     1     2    1
     7     2     3    2
     8     2     4   am
     9     4     6    1
    10     6     7    1
    11     7     8    1
    12    10     8    1
    13    10    11    1
    14    11    12    1
    15    12    13    1
    16    13    16    1
    17    16    17    1
    18    13    14    1
    19    14    15    1
    20     8     9    1
    21    24    25   ar
    22    25    26   ar
    23    26    27   ar
    24    27    31    1
    25    31    32    1
    26    31    33    1
    27    31    34    1
    28    27    28   ar
    29    28    29   ar
    30    29    30   ar
    31    30    22   ar
    32     9     6    1
    33    30    25   ar
    34    15    10    1
    35    19    20    1
    36     4     5    1
    37    17    18    1
@<TRIPOS>MOLECULE
*****
 34 37 0 0 0
SMALL
GASTEIGER

@<TRIPOS>ATOM
      1 C         141.3177  144.9627  160.0688 C.3     1  UNL1        0.1747
      2 C         141.4672  144.4678  161.4769 C.2     1  UNL1        0.2425
      3 O         141.0331  145.3300  162.6250 O.2     1  UNL1       -0.2733
      4 N         142.0508  143.1107  161.7368 N.am    1  UNL1       -0.3018
      5 H         142.3357  142.5448  160.9832 H       1  UNL1        0.1495
      6 C         142.2002  142.6157  163.1449 C.3     1  UNL1        0.1035
      7 C         143.3601  142.2501  164.0232 C.3     1  UNL1        0.0933
      8 N         142.4118  141.9158  165.1362 N.3     1  UNL1       -0.2711
      9 C         141.2520  142.2814  164.2580 C.3     1  UNL1        0.0933
     10 C         142.5613  141.4209  166.5443 C.3     1  UNL1        0.0576
     11 C         142.3995  139.9607  166.8472 C.3     1  UNL1        0.0160
     12 C         142.5490  139.4658  168.2552 C.3     1  UNL1        0.0039
     13 C         142.8602  140.4311  169.3605 C.3     1  UNL1        0.0294
     14 C         143.0220  141.8912  169.0576 C.3     1  UNL1        0.0039
     15 C         142.8725  142.3861  167.6495 C.3     1  UNL1        0.0160
     16 C         143.0097  139.9360  170.7685 C.3     1  UNL1        0.1371
     17 O         142.3607  140.6797  171.8980 O.3     1  UNL1       -0.3820
     18 H         142.7722  141.5534  171.9886 H       1  UNL1        0.2104
     19 N         139.9737  144.9356  159.4030 N.pl3   1  UNL1       -0.3093
     20 H         139.4489  145.7643  159.3195 H       1  UNL1        0.1487
     21 C         138.4697  141.1178  156.0798 C.3     1  UNL1        0.1537
     22 N         138.7381  141.8909  157.3369 N.ar    1  UNL1       -0.2476
     23 N         139.3461  143.2598  157.4173 N.ar    1  UNL1       -0.1544
     24 C         139.4295  143.6457  158.8644 C.ar    1  UNL1        0.1500
     25 C         138.8731  142.5153  159.6784 C.ar    1  UNL1        0.0503
     26 C         138.7003  142.3334  161.1572 C.ar    1  UNL1        0.0082
     27 C         138.1003  141.0670  161.6920 C.ar    1  UNL1        0.0716
     28 C         137.6730  139.9825  160.7480 C.ar    1  UNL1        0.0054
     29 C         137.8458  140.1643  159.2691 C.ar    1  UNL1        0.0188
     30 C         138.4458  141.4308  158.7343 C.ar    1  UNL1        0.0807
     31 C         137.9275  140.8850  163.1709 C.3     1  UNL1        0.4186
     32 F         137.7547  140.7031  164.6498 F       1  UNL1       -0.1659
     33 F         136.7712  141.8404  163.1533 F       1  UNL1       -0.1659
     34 F         139.0837  139.9297  163.1886 F       1  UNL1       -0.1659
@<TRIPOS>BOND
     1    21    22    1
     2    22    23   ar
     3    23    24   ar
     4    24    19    1
     5    19     1    1
     6     1     2    1
     7     2     3    2
     8     2     4   am
     9     4     6    1
    10     6     7    1
    11     7     8    1
    12    10     8    1
    13    10    11    1
    14    11    12    1
    15    12    13    1
    16    13    16    1
    17    16    17    1
    18    13    14    1
    19    14    15    1
    20     8     9    1
    21    24    25   ar
    22    25    26   ar
    23    26    27   ar
    24    27    31    1
    25    31    32    1
    26    31    33    1
    27    31    34    1
    28    27    28   ar
    29    28    29   ar
    30    29    30   ar
    31    30    22   ar
    32     9     6    1
    33    30    25   ar
    34    15    10    1
    35    19    20    1
    36     4     5    1
    37    17    18    1
@<TRIPOS>MOLECULE
*****
 34 37 0 0 0
SMALL
GASTEIGER

@<TRIPOS>ATOM
      1 C         138.0338  140.5411  159.6808 C.3     1  UNL1        0.1747
      2 C         138.2800  140.5331  161.1605 C.2     1  UNL1        0.2425
      3 O         137.5859  139.5278  162.0309 O.2     1  UNL1       -0.2733
      4 N         139.2203  141.5304  161.7696 N.am    1  UNL1       -0.3018
      5 H         139.6759  142.1902  161.1983 H       1  UNL1        0.1495
      6 C         139.4665  141.5224  163.2492 C.3     1  UNL1        0.1035
      7 C         138.6588  141.8827  164.4609 C.3     1  UNL1        0.0933
      8 N         139.8146  141.5112  165.3418 N.3     1  UNL1       -0.2711
      9 C         140.6223  141.1509  164.1302 C.3     1  UNL1        0.0933
     10 C         140.0608  141.5032  166.8215 C.3     1  UNL1        0.0576
     11 C         140.5668  142.7392  167.5043 C.3     1  UNL1        0.0160
     12 C         140.8130  142.7312  168.9838 C.3     1  UNL1        0.0039
     13 C         140.5532  141.4872  169.7807 C.3     1  UNL1        0.0294
     14 C         140.0472  140.2512  169.0979 C.3     1  UNL1        0.0039
     15 C         139.8010  140.2592  167.6183 C.3     1  UNL1        0.0160
     16 C         140.7995  141.4793  171.2603 C.3     1  UNL1        0.1371
     17 O         142.0111  140.7911  171.8154 O.3     1  UNL1       -0.3820
     18 H         141.9416  139.8366  171.6575 H       1  UNL1        0.2104
     19 N         138.7040  139.5255  158.8035 N.pl3   1  UNL1       -0.3093
     20 H         138.1611  138.9050  158.2654 H       1  UNL1        0.1487
     21 C         143.6864  139.8906  157.0940 C.3     1  UNL1        0.1537
     22 N         142.4914  139.6232  157.9602 N.ar    1  UNL1       -0.2476
     23 N         141.0589  139.8603  157.5839 N.ar    1  UNL1       -0.1544
     24 C         140.2012  139.4554  158.7460 C.ar    1  UNL1        0.1500
     25 C         141.1037  138.9681  159.8406 C.ar    1  UNL1        0.0503
     26 C         140.8195  138.4433  161.2167 C.ar    1  UNL1        0.0082
     27 C         141.9507  138.0222  162.1072 C.ar    1  UNL1        0.0716
     28 C         143.3661  138.1259  161.6215 C.ar    1  UNL1        0.0054
     29 C         143.6503  138.6507  160.2454 C.ar    1  UNL1        0.0188
     30 C         142.5191  139.0718  159.3549 C.ar    1  UNL1        0.0807
     31 C         141.6665  137.4974  163.4834 C.3     1  UNL1        0.4186
     32 F         141.3823  136.9726  164.8595 F       1  UNL1       -0.1659
     33 F         140.3696  136.9224  162.9963 F       1  UNL1       -0.1659
     34 F         142.9634  138.0724  163.9705 F       1  UNL1       -0.1659
@<TRIPOS>BOND
     1    21    22    1
     2    22    23   ar
     3    23    24   ar
     4    24    19    1
     5    19     1    1
     6     1     2    1
     7     2     3    2
     8     2     4   am
     9     4     6    1
    10     6     7    1
    11     7     8    1
    12    10     8    1
    13    10    11    1
    14    11    12    1
    15    12    13    1
    16    13    16    1
    17    16    17    1
    18    13    14    1
    19    14    15    1
    20     8     9    1
    21    24    25   ar
    22    25    26   ar
    23    26    27   ar
    24    27    31    1
    25    31    32    1
    26    31    33    1
    27    31    34    1
    28    27    28   ar
    29    28    29   ar
    30    29    30   ar
    31    30    22   ar
    32     9     6    1
    33    30    25   ar
    34    15    10    1
    35    19    20    1
    36     4     5    1
    37    17    18    1
@<TRIPOS>MOLECULE
*****
 34 37 0 0 0
SMALL
GASTEIGER

@<TRIPOS>ATOM
      1 C         143.6033  139.5147  159.7502 C.3     1  UNL1        0.1747
      2 C         142.9930  139.5579  161.1198 C.2     1  UNL1        0.2425
      3 O         141.5150  139.3658  161.2887 O.2     1  UNL1       -0.2733
      4 N         143.8608  139.7931  162.3204 N.am    1  UNL1       -0.3018
      5 H         144.8309  139.9191  162.2096 H       1  UNL1        0.1495
      6 C         143.2505  139.8362  163.6900 C.3     1  UNL1        0.1035
      7 C         142.8803  140.9257  164.6524 C.3     1  UNL1        0.0933
      8 N         142.3874  139.8974  165.6268 N.3     1  UNL1       -0.2711
      9 C         142.7576  138.8080  164.6645 C.3     1  UNL1        0.0933
     10 C         141.7771  139.9406  166.9964 C.3     1  UNL1        0.0576
     11 C         140.3405  140.3376  167.1651 C.3     1  UNL1        0.0160
     12 C         139.7302  140.3808  168.5346 C.3     1  UNL1        0.0039
     13 C         140.5565  140.0269  169.7355 C.3     1  UNL1        0.0294
     14 C         141.9931  139.6298  169.5668 C.3     1  UNL1        0.0039
     15 C         142.6034  139.5867  168.1972 C.3     1  UNL1        0.0160
     16 C         139.9461  140.0701  171.1050 C.3     1  UNL1        0.1371
     17 O         139.5039  138.8001  171.7695 O.3     1  UNL1       -0.3820
     18 H         138.7634  138.4168  171.2739 H       1  UNL1        0.2104
     19 N         143.6911  140.7666  158.9285 N.pl3   1  UNL1       -0.3093
     20 H         144.5049  140.9580  158.4084 H       1  UNL1        0.1487
     21 C         139.2780  143.2721  157.4700 C.3     1  UNL1        0.1537
     22 N         140.5106  142.8784  158.2286 N.ar    1  UNL1       -0.2476
     23 N         141.4482  141.7637  157.8702 N.ar    1  UNL1       -0.1544
     24 C         142.5391  141.7268  158.8990 C.ar    1  UNL1        0.1500
     25 C         142.2758  142.8187  159.8933 C.ar    1  UNL1        0.0503
     26 C         143.0157  143.2567  161.1224 C.ar    1  UNL1        0.0082
     27 C         142.5018  144.4065  161.9371 C.ar    1  UNL1        0.0716
     28 C         141.2482  145.1183  161.5228 C.ar    1  UNL1        0.0054
     29 C         140.5083  144.6802  160.2937 C.ar    1  UNL1        0.0188
     30 C         141.0221  143.5304  159.4790 C.ar    1  UNL1        0.0807
     31 C         143.2417  144.8447  163.1663 C.3     1  UNL1        0.4186
     32 F         143.9815  145.2828  164.3953 F       1  UNL1       -0.1659
     33 F         141.9501  145.2913  163.7845 F       1  UNL1       -0.1659
     34 F         144.5333  144.3981  162.5480 F       1  UNL1       -0.1659
@<TRIPOS>BOND
     1    21    22    1
     2    22    23   ar
     3    23    24   ar
     4    24    19    1
     5    19     1    1
     6     1     2    1
     7     2     3    2
     8     2     4   am
     9     4     6    1
    10     6     7    1
    11     7     8    1
    12    10     8    1
    13    10    11    1
    14    11    12    1
    15    12    13    1
    16    13    16    1
    17    16    17    1
    18    13    14    1
    19    14    15    1
    20     8     9    1
    21    24    25   ar
    22    25    26   ar
    23    26    27   ar
    24    27    31    1
    25    31    32    1
    26    31    33    1
    27    31    34    1
    28    27    28   ar
    29    28    29   ar
    30    29    30   ar
    31    30    22   ar
    32     9     6    1
    33    30    25   ar
    34    15    10    1
    35    19    20    1
    36     4     5    1
    37    17    18    1
