@<TRIPOS>MOLECULE
*****
 32 35 0 0 0
SMALL
GASTEIGER

@<TRIPOS>ATOM
      1 O         138.6690  139.3525  168.3100 O.2     1  UNL1       -0.2699
      2 C         139.8939  139.9753  167.7086 C.2     1  UNL1        0.2494
      3 N         140.2636  139.6802  166.2852 N.am    1  UNL1       -0.2660
      4 C         141.4886  140.3030  165.6838 C.3     1  UNL1        0.1160
      5 C         141.8582  140.0078  164.2603 C.3     1  UNL1        0.1197
      6 N         141.0029  139.0898  163.4382 N.am    1  UNL1       -0.2555
      7 C         139.7780  138.4670  164.0396 C.2     1  UNL1        0.2497
      8 O         138.9227  137.5491  163.2176 O.2     1  UNL1       -0.2727
      9 C         139.4083  138.7622  165.4630 C.3     1  UNL1        0.1799
     10 C         140.7492  140.8933  168.5307 C.ar    1  UNL1        0.0537
     11 C         140.3812  142.3412  168.6653 C.ar    1  UNL1        0.0068
     12 C         141.2365  143.2591  169.4874 C.ar    1  UNL1        0.0298
     13 C         142.4598  142.7292  170.1749 C.ar    1  UNL1        0.1401
     14 F         143.3151  143.6472  170.9971 F       1  UNL1       -0.2042
     15 C         142.8278  141.2813  170.0404 C.ar    1  UNL1        0.0298
     16 C         141.9725  140.3634  169.2183 C.ar    1  UNL1        0.0068
     17 C         141.3726  138.7946  162.0148 C.ar    1  UNL1        0.0541
     18 C         142.5090  137.8633  161.7127 C.ar    1  UNL1        0.0180
     19 C         142.8786  137.5682  160.2892 C.ar    1  UNL1        0.0382
     20 C         142.1119  138.2043  159.1679 C.ar    1  UNL1        0.1386
     21 C         140.9756  139.1357  159.4700 C.ar    1  UNL1        0.0382
     22 C         140.6059  139.4308  160.8934 C.ar    1  UNL1        0.0180
     23 O         142.4816  137.9092  157.7445 O.3     1  UNL1       -0.4754
     24 C         141.6835  136.9161  156.9528 C.3     1  UNL1        0.2068
     25 C         142.3297  135.6539  156.4635 C.3     1  UNL1        0.0646
     26 C         143.4077  134.9997  157.2758 C.3     1  UNL1        0.0759
     27 N         143.5924  133.5122  157.2177 N.3     1  UNL1       -0.2726
     28 C         142.6221  132.6655  156.4485 C.3     1  UNL1        0.0721
     29 C         142.8068  131.1780  156.3904 C.3     1  UNL1        0.0174
     30 C         143.9617  130.5373  157.1015 C.3     1  UNL1        0.0029
     31 C         144.9319  131.3840  157.8707 C.3     1  UNL1        0.0174
     32 C         144.7473  132.8715  157.9288 C.3     1  UNL1        0.0721
@<TRIPOS>BOND
     1     1     2    2
     2     2    10    1
     3    10    11   ar
     4    11    12   ar
     5    12    13   ar
     6    13    14    1
     7    13    15   ar
     8    15    16   ar
     9     2     3   am
    10     3     4    1
    11     4     5    1
    12     5     6    1
    13     6    17    1
    14    17    18   ar
    15    18    19   ar
    16    19    20   ar
    17    20    23    1
    18    23    24    1
    19    24    25    1
    20    25    26    1
    21    26    27    1
    22    27    28    1
    23    28    29    1
    24    29    30    1
    25    30    31    1
    26    31    32    1
    27    20    21   ar
    28    21    22   ar
    29     6     7   am
    30     7     8    2
    31     7     9    1
    32    16    10   ar
    33     9     3    1
    34    22    17   ar
    35    32    27    1
@<TRIPOS>MOLECULE
*****
 32 35 0 0 0
SMALL
GASTEIGER

@<TRIPOS>ATOM
      1 O         139.0180  139.5216  168.4694 O.2     1  UNL1       -0.2699
      2 C         139.8887  140.5576  167.8225 C.2     1  UNL1        0.2494
      3 N         139.8258  140.7699  166.3389 N.am    1  UNL1       -0.2660
      4 C         140.6966  141.8060  165.6920 C.3     1  UNL1        0.1160
      5 C         140.6337  142.0183  164.2084 C.3     1  UNL1        0.1197
      6 N         139.7001  141.1947  163.3718 N.am    1  UNL1       -0.2555
      7 C         138.8294  140.1587  164.0187 C.2     1  UNL1        0.2497
      8 O         137.8958  139.3350  163.1821 O.2     1  UNL1       -0.2727
      9 C         138.8922  139.9463  165.5022 C.3     1  UNL1        0.1799
     10 C         140.8223  141.3812  168.6592 C.ar    1  UNL1        0.0537
     11 C         140.3688  142.6999  169.2117 C.ar    1  UNL1        0.0068
     12 C         141.3024  143.5235  170.0484 C.ar    1  UNL1        0.0298
     13 C         142.6895  143.0284  170.3325 C.ar    1  UNL1        0.1401
     14 F         143.6232  143.8520  171.1692 F       1  UNL1       -0.2042
     15 C         143.1431  141.7097  169.7799 C.ar    1  UNL1        0.0298
     16 C         142.2095  140.8861  168.9433 C.ar    1  UNL1        0.0068
     17 C         139.6372  141.4071  161.8883 C.ar    1  UNL1        0.0541
     18 C         138.6081  142.3298  161.3056 C.ar    1  UNL1        0.0180
     19 C         138.5453  142.5422  159.8220 C.ar    1  UNL1        0.0382
     20 C         139.5116  141.8318  158.9211 C.ar    1  UNL1        0.1386
     21 C         140.5407  140.9090  159.5037 C.ar    1  UNL1        0.0382
     22 C         140.6035  140.6967  160.9873 C.ar    1  UNL1        0.0180
     23 O         139.4487  142.0442  157.4376 O.3     1  UNL1       -0.4754
     24 C         139.3958  143.4360  156.8808 C.3     1  UNL1        0.2068
     25 C         140.5239  144.3905  157.1390 C.3     1  UNL1        0.0646
     26 C         140.3487  145.5103  158.1215 C.3     1  UNL1        0.0759
     27 N         140.6922  145.3007  159.5665 N.3     1  UNL1       -0.2726
     28 C         141.8317  144.4012  159.9438 C.3     1  UNL1        0.0721
     29 C         142.1751  144.1916  161.3889 C.3     1  UNL1        0.0174
     30 C         141.3790  144.8816  162.4566 C.3     1  UNL1        0.0029
     31 C         140.2394  145.7811  162.0794 C.3     1  UNL1        0.0174
     32 C         139.8960  145.9907  160.6344 C.3     1  UNL1        0.0721
@<TRIPOS>BOND
     1     1     2    2
     2     2    10    1
     3    10    11   ar
     4    11    12   ar
     5    12    13   ar
     6    13    14    1
     7    13    15   ar
     8    15    16   ar
     9     2     3   am
    10     3     4    1
    11     4     5    1
    12     5     6    1
    13     6    17    1
    14    17    18   ar
    15    18    19   ar
    16    19    20   ar
    17    20    23    1
    18    23    24    1
    19    24    25    1
    20    25    26    1
    21    26    27    1
    22    27    28    1
    23    28    29    1
    24    29    30    1
    25    30    31    1
    26    31    32    1
    27    20    21   ar
    28    21    22   ar
    29     6     7   am
    30     7     8    2
    31     7     9    1
    32    16    10   ar
    33     9     3    1
    34    22    17   ar
    35    32    27    1
@<TRIPOS>MOLECULE
*****
 32 35 0 0 0
SMALL
GASTEIGER

@<TRIPOS>ATOM
      1 O         143.1259  139.1869  168.3399 O.2     1  UNL1       -0.2699
      2 C         141.9833  139.9911  167.7942 C.2     1  UNL1        0.2494
      3 N         141.5934  139.8575  166.3520 N.am    1  UNL1       -0.2660
      4 C         140.4508  140.6617  165.8064 C.3     1  UNL1        0.1160
      5 C         140.0609  140.5280  164.3641 C.3     1  UNL1        0.1197
      6 N         140.8135  139.5902  163.4675 N.am    1  UNL1       -0.2555
      7 C         141.9561  138.7860  164.0131 C.2     1  UNL1        0.2497
      8 O         142.7088  137.8482  163.1165 O.2     1  UNL1       -0.2727
      9 C         142.3461  138.9196  165.4553 C.3     1  UNL1        0.1799
     10 C         141.2306  140.9290  168.6909 C.ar    1  UNL1        0.0537
     11 C         140.0074  140.4529  169.4167 C.ar    1  UNL1        0.0068
     12 C         139.2548  141.3908  170.3133 C.ar    1  UNL1        0.0298
     13 C         139.7254  142.8047  170.4841 C.ar    1  UNL1        0.1401
     14 F         138.9728  143.7426  171.3808 F       1  UNL1       -0.2042
     15 C         140.9487  143.2808  169.7583 C.ar    1  UNL1        0.0298
     16 C         141.7013  142.3430  168.8617 C.ar    1  UNL1        0.0068
     17 C         140.4236  139.4566  162.0252 C.ar    1  UNL1        0.0541
     18 C         141.2027  140.1806  160.9675 C.ar    1  UNL1        0.0180
     19 C         140.8127  140.0469  159.5252 C.ar    1  UNL1        0.0382
     20 C         139.6437  139.1893  159.1407 C.ar    1  UNL1        0.1386
     21 C         138.8646  138.4652  160.1985 C.ar    1  UNL1        0.0382
     22 C         139.2546  138.5989  161.6407 C.ar    1  UNL1        0.0180
     23 O         139.2537  139.0556  157.6985 O.3     1  UNL1       -0.4754
     24 C         138.6190  140.2111  156.9830 C.3     1  UNL1        0.2068
     25 C         137.6957  141.1346  157.7212 C.3     1  UNL1        0.0646
     26 C         138.1036  142.5549  157.9787 C.3     1  UNL1        0.0759
     27 N         138.7038  142.9350  159.2998 N.3     1  UNL1       -0.2726
     28 C         139.8756  143.8701  159.3499 C.3     1  UNL1        0.0721
     29 C         140.4758  144.2502  160.6711 C.3     1  UNL1        0.0174
     30 C         139.9041  143.6954  161.9420 C.3     1  UNL1        0.0029
     31 C         138.7322  142.7603  161.8918 C.3     1  UNL1        0.0174
     32 C         138.1321  142.3802  160.5708 C.3     1  UNL1        0.0721
@<TRIPOS>BOND
     1     1     2    2
     2     2    10    1
     3    10    11   ar
     4    11    12   ar
     5    12    13   ar
     6    13    14    1
     7    13    15   ar
     8    15    16   ar
     9     2     3   am
    10     3     4    1
    11     4     5    1
    12     5     6    1
    13     6    17    1
    14    17    18   ar
    15    18    19   ar
    16    19    20   ar
    17    20    23    1
    18    23    24    1
    19    24    25    1
    20    25    26    1
    21    26    27    1
    22    27    28    1
    23    28    29    1
    24    29    30    1
    25    30    31    1
    26    31    32    1
    27    20    21   ar
    28    21    22   ar
    29     6     7   am
    30     7     8    2
    31     7     9    1
    32    16    10   ar
    33     9     3    1
    34    22    17   ar
    35    32    27    1
@<TRIPOS>MOLECULE
*****
 32 35 0 0 0
SMALL
GASTEIGER

@<TRIPOS>ATOM
      1 O         144.8990  137.3456  155.3791 O.2     1  UNL1       -0.2699
      2 C         143.6451  136.9409  156.0961 C.2     1  UNL1        0.2494
      3 N         142.8887  137.9479  156.9108 N.am    1  UNL1       -0.2660
      4 C         141.6349  137.5431  157.6278 C.3     1  UNL1        0.1160
      5 C         140.8785  138.5502  158.4426 C.3     1  UNL1        0.1197
      6 N         141.3760  139.9619  158.5403 N.am    1  UNL1       -0.2555
      7 C         142.6298  140.3666  157.8233 C.2     1  UNL1        0.2497
      8 O         143.1272  141.7783  157.9211 O.2     1  UNL1       -0.2727
      9 C         143.3862  139.3597  157.0086 C.3     1  UNL1        0.1799
     10 C         143.1477  135.5291  155.9983 C.ar    1  UNL1        0.0537
     11 C         143.5632  134.5149  157.0224 C.ar    1  UNL1        0.0068
     12 C         143.0657  133.1032  156.9246 C.ar    1  UNL1        0.0298
     13 C         142.1528  132.7057  155.8027 C.ar    1  UNL1        0.1401
     14 F         141.6554  131.2939  155.7050 F       1  UNL1       -0.2042
     15 C         141.7373  133.7199  154.7787 C.ar    1  UNL1        0.0298
     16 C         142.2347  135.1316  154.8765 C.ar    1  UNL1        0.0068
     17 C         140.6196  140.9689  159.3551 C.ar    1  UNL1        0.0541
     18 C         141.1853  141.4595  160.6548 C.ar    1  UNL1        0.0180
     19 C         140.4289  142.4665  161.4695 C.ar    1  UNL1        0.0382
     20 C         139.1067  142.9829  160.9845 C.ar    1  UNL1        0.1386
     21 C         138.5410  142.4923  159.6848 C.ar    1  UNL1        0.0382
     22 C         139.2974  141.4853  158.8701 C.ar    1  UNL1        0.0180
     23 O         138.3503  143.9899  161.7993 O.3     1  UNL1       -0.4754
     24 C         138.1585  143.7723  163.2710 C.3     1  UNL1        0.2068
     25 C         137.4071  142.5694  163.7596 C.3     1  UNL1        0.0646
     26 C         138.1480  141.4267  164.3883 C.3     1  UNL1        0.0759
     27 N         138.6501  140.2990  163.5361 N.3     1  UNL1       -0.2726
     28 C         139.9516  139.6308  163.8672 C.3     1  UNL1        0.0721
     29 C         140.4538  138.5031  163.0150 C.3     1  UNL1        0.0174
     30 C         139.6545  138.0437  161.8318 C.3     1  UNL1        0.0029
     31 C         138.3530  138.7119  161.5008 C.3     1  UNL1        0.0174
     32 C         137.8508  139.8395  162.3529 C.3     1  UNL1        0.0721
@<TRIPOS>BOND
     1     1     2    2
     2     2    10    1
     3    10    11   ar
     4    11    12   ar
     5    12    13   ar
     6    13    14    1
     7    13    15   ar
     8    15    16   ar
     9     2     3   am
    10     3     4    1
    11     4     5    1
    12     5     6    1
    13     6    17    1
    14    17    18   ar
    15    18    19   ar
    16    19    20   ar
    17    20    23    1
    18    23    24    1
    19    24    25    1
    20    25    26    1
    21    26    27    1
    22    27    28    1
    23    28    29    1
    24    29    30    1
    25    30    31    1
    26    31    32    1
    27    20    21   ar
    28    21    22   ar
    29     6     7   am
    30     7     8    2
    31     7     9    1
    32    16    10   ar
    33     9     3    1
    34    22    17   ar
    35    32    27    1
@<TRIPOS>MOLECULE
*****
 32 35 0 0 0
SMALL
GASTEIGER

@<TRIPOS>ATOM
      1 O         144.9542  137.3266  155.4179 O.2     1  UNL1       -0.2699
      2 C         143.6583  136.9695  156.0835 C.2     1  UNL1        0.2494
      3 N         142.9228  137.9963  156.8926 N.am    1  UNL1       -0.2660
      4 C         141.6269  137.6392  157.5583 C.3     1  UNL1        0.1160
      5 C         140.8914  138.6661  158.3674 C.3     1  UNL1        0.1197
      6 N         141.4518  140.0500  158.5109 N.am    1  UNL1       -0.2555
      7 C         142.7478  140.4071  157.8452 C.2     1  UNL1        0.2497
      8 O         143.3082  141.7910  157.9887 O.2     1  UNL1       -0.2727
      9 C         143.4832  139.3803  157.0361 C.3     1  UNL1        0.1799
     10 C         143.0978  135.5855  155.9401 C.ar    1  UNL1        0.0537
     11 C         143.4782  134.5168  156.9215 C.ar    1  UNL1        0.0068
     12 C         142.9178  133.1329  156.7779 C.ar    1  UNL1        0.0298
     13 C         141.9770  132.8176  155.6530 C.ar    1  UNL1        0.1401
     14 F         141.4166  131.4336  155.5095 F       1  UNL1       -0.2042
     15 C         141.5966  133.8863  154.6716 C.ar    1  UNL1        0.0298
     16 C         142.1570  135.2702  154.8151 C.ar    1  UNL1        0.0068
     17 C         140.7164  141.0768  159.3200 C.ar    1  UNL1        0.0541
     18 C         141.1162  141.3384  160.7418 C.ar    1  UNL1        0.0180
     19 C         140.3806  142.3653  161.5509 C.ar    1  UNL1        0.0382
     20 C         139.2454  143.1305  160.9382 C.ar    1  UNL1        0.1386
     21 C         138.8455  142.8689  159.5163 C.ar    1  UNL1        0.0382
     22 C         139.5810  141.8421  158.7072 C.ar    1  UNL1        0.0180
     23 O         138.5099  144.1573  161.7473 O.3     1  UNL1       -0.4754
     24 C         137.7304  143.7399  162.9589 C.3     1  UNL1        0.2068
     25 C         138.3903  143.7222  164.3059 C.3     1  UNL1        0.0646
     26 C         139.4368  144.7430  164.6418 C.3     1  UNL1        0.0759
     27 N         140.8889  144.4197  164.4499 N.3     1  UNL1       -0.2726
     28 C         141.7610  145.3357  163.6435 C.3     1  UNL1        0.0721
     29 C         143.2132  145.0123  163.4516 C.3     1  UNL1        0.0174
     30 C         143.7931  143.7730  164.0662 C.3     1  UNL1        0.0029
     31 C         142.9210  142.8570  164.8726 C.3     1  UNL1        0.0174
     32 C         141.4689  143.1803  165.0645 C.3     1  UNL1        0.0721
@<TRIPOS>BOND
     1     1     2    2
     2     2    10    1
     3    10    11   ar
     4    11    12   ar
     5    12    13   ar
     6    13    14    1
     7    13    15   ar
     8    15    16   ar
     9     2     3   am
    10     3     4    1
    11     4     5    1
    12     5     6    1
    13     6    17    1
    14    17    18   ar
    15    18    19   ar
    16    19    20   ar
    17    20    23    1
    18    23    24    1
    19    24    25    1
    20    25    26    1
    21    26    27    1
    22    27    28    1
    23    28    29    1
    24    29    30    1
    25    30    31    1
    26    31    32    1
    27    20    21   ar
    28    21    22   ar
    29     6     7   am
    30     7     8    2
    31     7     9    1
    32    16    10   ar
    33     9     3    1
    34    22    17   ar
    35    32    27    1
@<TRIPOS>MOLECULE
*****
 32 35 0 0 0
SMALL
GASTEIGER

@<TRIPOS>ATOM
      1 O         138.8432  139.5116  168.7011 O.2     1  UNL1       -0.2699
      2 C         140.0222  140.1480  168.0266 C.2     1  UNL1        0.2494
      3 N         140.3148  139.8473  166.5865 N.am    1  UNL1       -0.2660
      4 C         141.4939  140.4836  165.9120 C.3     1  UNL1        0.1160
      5 C         141.7865  140.1828  164.4718 C.3     1  UNL1        0.1197
      6 N         140.9000  139.2458  163.7062 N.am    1  UNL1       -0.2555
      7 C         139.7210  138.6095  164.3807 C.2     1  UNL1        0.2497
      8 O         138.8345  137.6725  163.6151 O.2     1  UNL1       -0.2727
      9 C         139.4284  138.9102  165.8208 C.3     1  UNL1        0.1799
     10 C         140.9087  141.0850  168.7922 C.ar    1  UNL1        0.0537
     11 C         140.4330  142.4699  169.1174 C.ar    1  UNL1        0.0068
     12 C         141.3194  143.4069  169.8831 C.ar    1  UNL1        0.0298
     13 C         142.6816  142.9590  170.3235 C.ar    1  UNL1        0.1401
     14 F         143.5680  143.8961  171.0892 F       1  UNL1       -0.2042
     15 C         143.1573  141.5741  169.9983 C.ar    1  UNL1        0.0298
     16 C         142.2708  140.6371  169.2327 C.ar    1  UNL1        0.0068
     17 C         141.1926  138.9451  162.2661 C.ar    1  UNL1        0.0541
     18 C         140.3365  139.5389  161.1870 C.ar    1  UNL1        0.0180
     19 C         140.6292  139.2382  159.7468 C.ar    1  UNL1        0.0382
     20 C         141.7779  138.3436  159.3859 C.ar    1  UNL1        0.1386
     21 C         142.6340  137.7498  160.4650 C.ar    1  UNL1        0.0382
     22 C         142.3413  138.0505  161.9051 C.ar    1  UNL1        0.0180
     23 O         142.0705  138.0429  157.9458 O.3     1  UNL1       -0.4754
     24 C         142.3459  139.1629  156.9867 C.3     1  UNL1        0.2068
     25 C         143.6599  139.8848  157.0341 C.3     1  UNL1        0.0646
     26 C         143.7085  141.3282  157.4394 C.3     1  UNL1        0.0759
     27 N         143.2235  141.7427  158.7970 N.3     1  UNL1       -0.2726
     28 C         143.9511  141.2838  160.0257 C.3     1  UNL1        0.0721
     29 C         143.4661  141.6983  161.3833 C.3     1  UNL1        0.0174
     30 C         142.2534  142.5717  161.5121 C.3     1  UNL1        0.0029
     31 C         141.5258  143.0307  160.2833 C.3     1  UNL1        0.0174
     32 C         142.0108  142.6162  158.9258 C.3     1  UNL1        0.0721
@<TRIPOS>BOND
     1     1     2    2
     2     2    10    1
     3    10    11   ar
     4    11    12   ar
     5    12    13   ar
     6    13    14    1
     7    13    15   ar
     8    15    16   ar
     9     2     3   am
    10     3     4    1
    11     4     5    1
    12     5     6    1
    13     6    17    1
    14    17    18   ar
    15    18    19   ar
    16    19    20   ar
    17    20    23    1
    18    23    24    1
    19    24    25    1
    20    25    26    1
    21    26    27    1
    22    27    28    1
    23    28    29    1
    24    29    30    1
    25    30    31    1
    26    31    32    1
    27    20    21   ar
    28    21    22   ar
    29     6     7   am
    30     7     8    2
    31     7     9    1
    32    16    10   ar
    33     9     3    1
    34    22    17   ar
    35    32    27    1
@<TRIPOS>MOLECULE
*****
 32 35 0 0 0
SMALL
GASTEIGER

@<TRIPOS>ATOM
      1 O         143.2418  138.7706  168.0975 O.2     1  UNL1       -0.2699
      2 C         142.5188  139.9637  167.5462 C.2     1  UNL1        0.2494
      3 N         142.6315  140.3017  166.0891 N.am    1  UNL1       -0.2660
      4 C         141.9084  141.4947  165.5379 C.3     1  UNL1        0.1160
      5 C         142.0212  141.8327  164.0807 C.3     1  UNL1        0.1197
      6 N         142.8569  140.9777  163.1750 N.am    1  UNL1       -0.2555
      7 C         143.5800  139.7847  163.7263 C.2     1  UNL1        0.2497
      8 O         144.4157  138.9297  162.8205 O.2     1  UNL1       -0.2727
      9 C         143.4673  139.4466  165.1833 C.3     1  UNL1        0.1799
     10 C         141.6830  140.8187  168.4520 C.ar    1  UNL1        0.0537
     11 C         140.3136  140.3629  168.8607 C.ar    1  UNL1        0.0068
     12 C         139.4779  141.2179  169.7665 C.ar    1  UNL1        0.0298
     13 C         140.0116  142.5287  170.2636 C.ar    1  UNL1        0.1401
     14 F         139.1758  143.3837  171.1694 F       1  UNL1       -0.2042
     15 C         141.3809  142.9845  169.8549 C.ar    1  UNL1        0.0298
     16 C         142.2166  142.1295  168.9491 C.ar    1  UNL1        0.0068
     17 C         142.9697  141.3157  161.7180 C.ar    1  UNL1        0.0541
     18 C         143.9949  142.3081  161.2554 C.ar    1  UNL1        0.0180
     19 C         144.1076  142.6461  159.7983 C.ar    1  UNL1        0.0382
     20 C         143.1951  141.9917  158.8038 C.ar    1  UNL1        0.1386
     21 C         142.1698  140.9993  159.2664 C.ar    1  UNL1        0.0382
     22 C         142.0571  140.6613  160.7234 C.ar    1  UNL1        0.0180
     23 O         143.3078  142.3297  157.3468 O.3     1  UNL1       -0.4754
     24 C         142.4197  143.3810  156.7498 C.3     1  UNL1        0.2068
     25 C         142.3069  144.7267  157.4029 C.3     1  UNL1        0.0646
     26 C         141.0055  145.1582  158.0114 C.3     1  UNL1        0.0759
     27 N         140.4988  144.4864  159.2530 N.3     1  UNL1       -0.2726
     28 C         141.0618  144.8615  160.5918 C.3     1  UNL1        0.0721
     29 C         140.5550  144.1896  161.8335 C.3     1  UNL1        0.0174
     30 C         139.4852  143.1426  161.7364 C.3     1  UNL1        0.0029
     31 C         138.9222  142.7675  160.3976 C.3     1  UNL1        0.0174
     32 C         139.4290  143.4394  159.1560 C.3     1  UNL1        0.0721
@<TRIPOS>BOND
     1     1     2    2
     2     2    10    1
     3    10    11   ar
     4    11    12   ar
     5    12    13   ar
     6    13    14    1
     7    13    15   ar
     8    15    16   ar
     9     2     3   am
    10     3     4    1
    11     4     5    1
    12     5     6    1
    13     6    17    1
    14    17    18   ar
    15    18    19   ar
    16    19    20   ar
    17    20    23    1
    18    23    24    1
    19    24    25    1
    20    25    26    1
    21    26    27    1
    22    27    28    1
    23    28    29    1
    24    29    30    1
    25    30    31    1
    26    31    32    1
    27    20    21   ar
    28    21    22   ar
    29     6     7   am
    30     7     8    2
    31     7     9    1
    32    16    10   ar
    33     9     3    1
    34    22    17   ar
    35    32    27    1
@<TRIPOS>MOLECULE
*****
 32 35 0 0 0
SMALL
GASTEIGER

@<TRIPOS>ATOM
      1 O         137.6723  145.5099  155.0187 O.2     1  UNL1       -0.2699
      2 C         138.8774  146.2542  155.5123 C.2     1  UNL1        0.2494
      3 N         139.8253  145.5957  156.4703 N.am    1  UNL1       -0.2660
      4 C         141.0304  146.3400  156.9638 C.3     1  UNL1        0.1160
      5 C         141.9784  145.6814  157.9218 C.3     1  UNL1        0.1197
      6 N         141.7212  144.2785  158.3862 N.am    1  UNL1       -0.2555
      7 C         140.5161  143.5342  157.8927 C.2     1  UNL1        0.2497
      8 O         140.2589  142.1313  158.3571 O.2     1  UNL1       -0.2727
      9 C         139.5681  144.1927  156.9347 C.3     1  UNL1        0.1799
     10 C         139.1346  147.6572  155.0479 C.ar    1  UNL1        0.0537
     11 C         138.5760  148.8166  155.8184 C.ar    1  UNL1        0.0068
     12 C         138.8332  150.2194  155.3539 C.ar    1  UNL1        0.0298
     13 C         139.6490  150.4629  154.1189 C.ar    1  UNL1        0.1401
     14 F         139.9061  151.8659  153.6545 F       1  UNL1       -0.2042
     15 C         140.2075  149.3035  153.3484 C.ar    1  UNL1        0.0298
     16 C         139.9504  147.9007  153.8129 C.ar    1  UNL1        0.0068
     17 C         142.6691  143.6200  159.3442 C.ar    1  UNL1        0.0541
     18 C         143.8573  142.8661  158.8246 C.ar    1  UNL1        0.0180
     19 C         144.8052  142.2076  159.7827 C.ar    1  UNL1        0.0382
     20 C         144.5650  142.3029  161.2602 C.ar    1  UNL1        0.1386
     21 C         143.3768  143.0568  161.7798 C.ar    1  UNL1        0.0382
     22 C         142.4289  143.7153  160.8218 C.ar    1  UNL1        0.0180
     23 O         145.5129  141.6444  162.2181 O.3     1  UNL1       -0.4754
     24 C         145.1066  141.4280  163.6458 C.3     1  UNL1        0.2068
     25 C         145.0435  140.0375  164.2050 C.3     1  UNL1        0.0646
     26 C         143.8929  139.1405  163.8566 C.3     1  UNL1        0.0759
     27 N         143.2636  139.2216  162.4975 N.3     1  UNL1       -0.2726
     28 C         141.9114  139.8498  162.3333 C.3     1  UNL1        0.0721
     29 C         141.2820  139.9308  160.9741 C.3     1  UNL1        0.0174
     30 C         142.0049  139.3837  159.7791 C.3     1  UNL1        0.0029
     31 C         143.3571  138.7555  159.9432 C.3     1  UNL1        0.0174
     32 C         143.9864  138.6744  161.3024 C.3     1  UNL1        0.0721
@<TRIPOS>BOND
     1     1     2    2
     2     2    10    1
     3    10    11   ar
     4    11    12   ar
     5    12    13   ar
     6    13    14    1
     7    13    15   ar
     8    15    16   ar
     9     2     3   am
    10     3     4    1
    11     4     5    1
    12     5     6    1
    13     6    17    1
    14    17    18   ar
    15    18    19   ar
    16    19    20   ar
    17    20    23    1
    18    23    24    1
    19    24    25    1
    20    25    26    1
    21    26    27    1
    22    27    28    1
    23    28    29    1
    24    29    30    1
    25    30    31    1
    26    31    32    1
    27    20    21   ar
    28    21    22   ar
    29     6     7   am
    30     7     8    2
    31     7     9    1
    32    16    10   ar
    33     9     3    1
    34    22    17   ar
    35    32    27    1
@<TRIPOS>MOLECULE
*****
 32 35 0 0 0
SMALL
GASTEIGER

@<TRIPOS>ATOM
      1 O         143.2352  138.8051  168.0098 O.2     1  UNL1       -0.2699
      2 C         142.1534  139.6916  167.4679 C.2     1  UNL1        0.2494
      3 N         141.8178  139.6575  166.0063 N.am    1  UNL1       -0.2660
      4 C         140.7360  140.5440  165.4643 C.3     1  UNL1        0.1160
      5 C         140.4003  140.5098  164.0027 C.3     1  UNL1        0.1197
      6 N         141.1464  139.5892  163.0832 N.am    1  UNL1       -0.2555
      7 C         142.2282  138.7026  163.6252 C.2     1  UNL1        0.2497
      8 O         142.9744  137.7820  162.7056 O.2     1  UNL1       -0.2727
      9 C         142.5639  138.7368  165.0867 C.3     1  UNL1        0.1799
     10 C         141.4073  140.6123  168.3875 C.ar    1  UNL1        0.0537
     11 C         140.1438  140.1488  169.0498 C.ar    1  UNL1        0.0068
     12 C         139.3977  141.0695  169.9693 C.ar    1  UNL1        0.0298
     13 C         139.9151  142.4537  170.2266 C.ar    1  UNL1        0.1401
     14 F         139.1690  143.3744  171.1463 F       1  UNL1       -0.2042
     15 C         141.1786  142.9172  169.5644 C.ar    1  UNL1        0.0298
     16 C         141.9247  141.9965  168.6448 C.ar    1  UNL1        0.0068
     17 C         140.8108  139.5551  161.6217 C.ar    1  UNL1        0.0541
     18 C         139.7099  138.6652  161.1255 C.ar    1  UNL1        0.0180
     19 C         139.3742  138.6311  159.6639 C.ar    1  UNL1        0.0382
     20 C         140.1394  139.4868  158.6985 C.ar    1  UNL1        0.1386
     21 C         141.2403  140.3767  159.1946 C.ar    1  UNL1        0.0382
     22 C         141.5760  140.4108  160.6562 C.ar    1  UNL1        0.0180
     23 O         139.8038  139.4527  157.2370 O.3     1  UNL1       -0.4754
     24 C         140.6327  138.6295  156.2961 C.3     1  UNL1        0.2068
     25 C         140.9741  137.2105  156.6427 C.3     1  UNL1        0.0646
     26 C         142.4047  136.7598  156.6341 C.3     1  UNL1        0.0759
     27 N         142.7405  135.3359  156.3029 N.3     1  UNL1       -0.2726
     28 C         142.4795  134.8049  154.9245 C.3     1  UNL1        0.0721
     29 C         142.8153  133.3810  154.5933 C.3     1  UNL1        0.0174
     30 C         143.4122  132.4881  155.6404 C.3     1  UNL1        0.0029
     31 C         143.6732  133.0191  157.0188 C.3     1  UNL1        0.0174
     32 C         143.3374  134.4430  157.3500 C.3     1  UNL1        0.0721
@<TRIPOS>BOND
     1     1     2    2
     2     2    10    1
     3    10    11   ar
     4    11    12   ar
     5    12    13   ar
     6    13    14    1
     7    13    15   ar
     8    15    16   ar
     9     2     3   am
    10     3     4    1
    11     4     5    1
    12     5     6    1
    13     6    17    1
    14    17    18   ar
    15    18    19   ar
    16    19    20   ar
    17    20    23    1
    18    23    24    1
    19    24    25    1
    20    25    26    1
    21    26    27    1
    22    27    28    1
    23    28    29    1
    24    29    30    1
    25    30    31    1
    26    31    32    1
    27    20    21   ar
    28    21    22   ar
    29     6     7   am
    30     7     8    2
    31     7     9    1
    32    16    10   ar
    33     9     3    1
    34    22    17   ar
    35    32    27    1
