@<TRIPOS>MOLECULE
*****
 38 42 0 0 0
SMALL
GASTEIGER

@<TRIPOS>ATOM
      1 C         138.5331  140.4581  161.5026 C.ar    1  UNL1        0.1859
      2 N         139.2911  139.4980  162.3705 N.ar    1  UNL1       -0.2217
      3 C         139.8980  139.9698  163.6586 C.ar    1  UNL1        0.1361
      4 C         140.6561  139.0096  164.5266 C.ar    1  UNL1        0.1227
      5 N         141.2630  139.4814  165.8146 N.ar    1  UNL1       -0.2233
      6 C         141.1118  140.9135  166.2346 C.ar    1  UNL1        0.1662
      7 N         140.3538  141.8737  165.3667 N.ar    1  UNL1       -0.2077
      8 C         139.7469  141.4018  164.0787 C.ar    1  UNL1        0.1671
      9 N         138.9888  142.3620  163.2107 N.ar    1  UNL1       -0.2789
     10 C         138.3819  141.8902  161.9227 C.ar    1  UNL1        0.2934
     11 O         137.6238  142.8504  161.0546 O.2     1  UNL1       -0.2639
     12 C         141.7188  141.3853  167.5227 C.ar    1  UNL1        0.0630
     13 C         141.0509  141.0669  168.8275 C.ar    1  UNL1        0.0652
     14 C         139.7760  140.2768  168.8443 C.3     1  UNL1        0.0523
     15 N         141.6578  141.5388  170.1156 N.ar    1  UNL1       -0.2282
     16 C         142.9327  142.3289  170.0988 C.ar    1  UNL1        0.1982
     17 N         143.6007  142.6473  168.7939 N.ar    1  UNL1       -0.2283
     18 C         142.9937  142.1754  167.5059 C.ar    1  UNL1        0.0644
     19 C         143.6616  142.4938  166.2011 C.3     1  UNL1        0.0405
     20 C         144.2954  143.4891  165.2749 C.3     1  UNL1        0.0063
     21 C         144.1847  142.0498  164.8672 C.3     1  UNL1        0.0063
     22 C         138.8377  143.7940  163.6307 C.3     1  UNL1        0.0900
     23 C         137.7325  144.1890  164.5649 C.3     1  UNL1        0.0246
     24 C         139.7917  144.8311  163.1167 C.3     1  UNL1        0.0246
     25 N         137.9261  139.9863  160.2145 N.pl3   1  UNL1       -0.3094
     26 H         137.1101  139.4356  160.2275 H       1  UNL1        0.1487
     27 C         138.5624  140.3535  158.9068 C.3     1  UNL1        0.1349
     28 C         141.6988  137.6790  157.1012 C.ar    1  UNL1        0.1247
     29 C         142.0542  138.5897  158.2389 C.ar    1  UNL1        0.0212
     30 C         141.0088  139.4812  158.8408 C.ar    1  UNL1        0.0178
     31 C         139.6078  139.4620  158.3049 C.ar    1  UNL1        0.0789
     32 N         139.2524  138.5513  157.1672 N.ar    1  UNL1       -0.2451
     33 C         140.2979  137.6598  156.5654 C.ar    1  UNL1        0.1168
     34 S         142.7442  136.7875  156.4994 S.O2    1  UNL1        0.0101
     35 O         143.7400  137.9068  156.5711 O.2     1  UNL1       -0.1686
     36 O         141.7483  135.6681  156.4276 O.2     1  UNL1       -0.1686
     37 C         143.6958  134.4086  156.0686 C.3     1  UNL1        0.0276
     38 C         143.7896  135.8959  155.8975 C.3     1  UNL1        0.1560
@<TRIPOS>BOND
     1    37    38    1
     2    38    34    1
     3    34    35    2
     4    34    36    2
     5    34    28    1
     6    28    29   ar
     7    29    30   ar
     8    30    31   ar
     9    31    27    1
    10    27    25    1
    11    25     1    1
    12     1     2   ar
    13     2     3   ar
    14     3     4   ar
    15     4     5   ar
    16     5     6   ar
    17     6    12    1
    18    12    13   ar
    19    13    14    1
    20    13    15   ar
    21    15    16   ar
    22    16    17   ar
    23    17    18   ar
    24    18    19    1
    25    19    20    1
    26    20    21    1
    27     6     7   ar
    28     7     8   ar
    29     8     9   ar
    30     9    22    1
    31    22    23    1
    32    22    24    1
    33     9    10   ar
    34    10    11    2
    35    31    32   ar
    36    32    33   ar
    37    33    28   ar
    38    10     1   ar
    39     8     3   ar
    40    18    12   ar
    41    21    19    1
    42    25    26    1
@<TRIPOS>MOLECULE
*****
 38 42 0 0 0
SMALL
GASTEIGER

@<TRIPOS>ATOM
      1 C         141.4294  144.7270  162.1186 C.ar    1  UNL1        0.1859
      2 N         142.5856  144.2895  162.9681 N.ar    1  UNL1       -0.2217
      3 C         142.3367  143.5678  164.2594 C.ar    1  UNL1        0.1361
      4 C         143.4929  143.1303  165.1090 C.ar    1  UNL1        0.1227
      5 N         143.2440  142.4086  166.4002 N.ar    1  UNL1       -0.2233
      6 C         141.8389  142.1245  166.8418 C.ar    1  UNL1        0.1662
      7 N         140.6828  142.5620  165.9923 N.ar    1  UNL1       -0.2077
      8 C         140.9317  143.2837  164.7011 C.ar    1  UNL1        0.1671
      9 N         139.7754  143.7213  163.8514 N.ar    1  UNL1       -0.2789
     10 C         140.0243  144.4429  162.5602 C.ar    1  UNL1        0.2934
     11 O         138.8681  144.8805  161.7106 O.2     1  UNL1       -0.2639
     12 C         141.5901  141.4028  168.1331 C.ar    1  UNL1        0.0630
     13 C         140.9924  142.1346  169.2981 C.ar    1  UNL1        0.0652
     14 C         140.6436  143.5880  169.1720 C.3     1  UNL1        0.0523
     15 N         140.7436  141.4129  170.5894 N.ar    1  UNL1       -0.2282
     16 C         141.0924  139.9595  170.7156 C.ar    1  UNL1        0.1982
     17 N         141.6901  139.2277  169.5504 N.ar    1  UNL1       -0.2283
     18 C         141.9389  139.9494  168.2592 C.ar    1  UNL1        0.0644
     19 C         142.5366  139.2177  167.0941 C.3     1  UNL1        0.0405
     20 C         143.6477  138.4001  166.5051 C.3     1  UNL1        0.0063
     21 C         142.4606  138.7679  165.6652 C.3     1  UNL1        0.0063
     22 C         138.3704  143.4371  164.2931 C.3     1  UNL1        0.0900
     23 C         137.6294  144.4394  165.1277 C.3     1  UNL1        0.0246
     24 C         137.7063  142.1509  163.9001 C.3     1  UNL1        0.0246
     25 N         141.6783  145.4487  160.8273 N.pl3   1  UNL1       -0.3094
     26 H         142.0510  146.3599  160.8366 H       1  UNL1        0.1487
     27 C         141.3592  144.7821  159.5220 C.3     1  UNL1        0.1349
     28 C         142.2317  140.4036  158.9593 C.ar    1  UNL1        0.1247
     29 C         140.8122  140.8871  158.9933 C.ar    1  UNL1        0.0212
     30 C         140.5213  142.3466  159.1808 C.ar    1  UNL1        0.0178
     31 C         141.6500  143.3226  159.3344 C.ar    1  UNL1        0.0789
     32 N         143.0695  142.8391  159.3005 N.ar    1  UNL1       -0.2451
     33 C         143.3603  141.3795  159.1129 C.ar    1  UNL1        0.1168
     34 S         142.5225  138.9441  158.7717 S.O2    1  UNL1        0.0101
     35 O         143.8503  139.1219  159.4464 O.2     1  UNL1       -0.1686
     36 O         141.1947  138.7662  158.0970 O.2     1  UNL1       -0.1686
     37 C         142.5219  136.8247  157.2688 C.3     1  UNL1        0.0276
     38 C         142.8133  137.4845  158.5841 C.3     1  UNL1        0.1560
@<TRIPOS>BOND
     1    37    38    1
     2    38    34    1
     3    34    35    2
     4    34    36    2
     5    34    28    1
     6    28    29   ar
     7    29    30   ar
     8    30    31   ar
     9    31    27    1
    10    27    25    1
    11    25     1    1
    12     1     2   ar
    13     2     3   ar
    14     3     4   ar
    15     4     5   ar
    16     5     6   ar
    17     6    12    1
    18    12    13   ar
    19    13    14    1
    20    13    15   ar
    21    15    16   ar
    22    16    17   ar
    23    17    18   ar
    24    18    19    1
    25    19    20    1
    26    20    21    1
    27     6     7   ar
    28     7     8   ar
    29     8     9   ar
    30     9    22    1
    31    22    23    1
    32    22    24    1
    33     9    10   ar
    34    10    11    2
    35    31    32   ar
    36    32    33   ar
    37    33    28   ar
    38    10     1   ar
    39     8     3   ar
    40    18    12   ar
    41    21    19    1
    42    25    26    1
@<TRIPOS>MOLECULE
*****
 38 42 0 0 0
SMALL
GASTEIGER

@<TRIPOS>ATOM
      1 C         141.4847  144.7033  162.2178 C.ar    1  UNL1        0.1859
      2 N         142.6318  144.2137  163.0511 N.ar    1  UNL1       -0.2217
      3 C         142.3696  143.5261  164.3582 C.ar    1  UNL1        0.1361
      4 C         143.5168  143.0365  165.1914 C.ar    1  UNL1        0.1227
      5 N         143.2545  142.3489  166.4984 N.ar    1  UNL1       -0.2233
      6 C         141.8452  142.1509  166.9723 C.ar    1  UNL1        0.1662
      7 N         140.6980  142.6406  166.1391 N.ar    1  UNL1       -0.2077
      8 C         140.9603  143.3282  164.8320 C.ar    1  UNL1        0.1671
      9 N         139.8131  143.8178  163.9987 N.ar    1  UNL1       -0.2789
     10 C         140.0753  144.5054  162.6917 C.ar    1  UNL1        0.2934
     11 O         138.9281  144.9951  161.8584 O.2     1  UNL1       -0.2639
     12 C         141.5830  141.4633  168.2794 C.ar    1  UNL1        0.0630
     13 C         140.9945  142.2310  169.4259 C.ar    1  UNL1        0.0652
     14 C         140.6682  143.6862  169.2653 C.3     1  UNL1        0.0523
     15 N         140.7323  141.5433  170.7330 N.ar    1  UNL1       -0.2282
     16 C         141.0586  140.0881  170.8936 C.ar    1  UNL1        0.1982
     17 N         141.6471  139.3205  169.7470 N.ar    1  UNL1       -0.2283
     18 C         141.9093  140.0081  168.4400 C.ar    1  UNL1        0.0644
     19 C         142.4978  139.2405  167.2935 C.3     1  UNL1        0.0405
     20 C         142.4261  138.7732  165.8699 C.3     1  UNL1        0.0063
     21 C         143.5888  138.3782  166.7312 C.3     1  UNL1        0.0063
     22 C         138.4037  143.6199  164.4726 C.3     1  UNL1        0.0900
     23 C         137.7649  144.6367  165.3716 C.3     1  UNL1        0.0246
     24 C         137.6332  142.4052  164.0475 C.3     1  UNL1        0.0246
     25 N         141.7469  145.3910  160.9107 N.pl3   1  UNL1       -0.3094
     26 H         142.2030  146.2633  160.8962 H       1  UNL1        0.1487
     27 C         141.3140  144.7495  159.6258 C.3     1  UNL1        0.1349
     28 C         144.2615  142.3750  157.1919 C.ar    1  UNL1        0.1247
     29 C         143.0556  142.9754  156.5323 C.ar    1  UNL1        0.0212
     30 C         142.0731  143.7669  157.3435 C.ar    1  UNL1        0.0178
     31 C         142.2965  143.9580  158.8145 C.ar    1  UNL1        0.0789
     32 N         143.5025  143.3575  159.4741 N.ar    1  UNL1       -0.2451
     33 C         144.4850  142.5660  158.6628 C.ar    1  UNL1        0.1168
     34 S         145.2440  141.5835  156.3806 S.O2    1  UNL1        0.0101
     35 O         145.0310  140.4000  157.2773 O.2     1  UNL1       -0.1686
     36 O         145.4571  142.7669  155.4840 O.2     1  UNL1       -0.1686
     37 C         146.9986  141.4572  154.4686 C.3     1  UNL1        0.0276
     38 C         146.2266  140.7920  155.5693 C.3     1  UNL1        0.1560
@<TRIPOS>BOND
     1    37    38    1
     2    38    34    1
     3    34    35    2
     4    34    36    2
     5    34    28    1
     6    28    29   ar
     7    29    30   ar
     8    30    31   ar
     9    31    27    1
    10    27    25    1
    11    25     1    1
    12     1     2   ar
    13     2     3   ar
    14     3     4   ar
    15     4     5   ar
    16     5     6   ar
    17     6    12    1
    18    12    13   ar
    19    13    14    1
    20    13    15   ar
    21    15    16   ar
    22    16    17   ar
    23    17    18   ar
    24    18    19    1
    25    19    20    1
    26    20    21    1
    27     6     7   ar
    28     7     8   ar
    29     8     9   ar
    30     9    22    1
    31    22    23    1
    32    22    24    1
    33     9    10   ar
    34    10    11    2
    35    31    32   ar
    36    32    33   ar
    37    33    28   ar
    38    10     1   ar
    39     8     3   ar
    40    18    12   ar
    41    21    19    1
    42    25    26    1
@<TRIPOS>MOLECULE
*****
 38 42 0 0 0
SMALL
GASTEIGER

@<TRIPOS>ATOM
      1 C         138.0307  140.5306  162.1951 C.ar    1  UNL1        0.1859
      2 N         138.6679  139.5562  163.1408 N.ar    1  UNL1       -0.2217
      3 C         139.3734  140.0537  164.3676 C.ar    1  UNL1        0.1361
      4 C         140.0106  139.0792  165.3133 C.ar    1  UNL1        0.1227
      5 N         140.7161  139.5767  166.5400 N.ar    1  UNL1       -0.2233
      6 C         140.7845  141.0486  166.8208 C.ar    1  UNL1        0.1662
      7 N         140.1474  142.0230  165.8751 N.ar    1  UNL1       -0.2077
      8 C         139.4418  141.5255  164.6484 C.ar    1  UNL1        0.1671
      9 N         138.8047  142.5000  163.7026 N.ar    1  UNL1       -0.2789
     10 C         138.0991  142.0025  162.4759 C.ar    1  UNL1        0.2934
     11 O         137.4619  142.9769  161.5301 O.2     1  UNL1       -0.2639
     12 C         141.4901  141.5461  168.0476 C.ar    1  UNL1        0.0630
     13 C         140.8516  141.3887  169.3957 C.ar    1  UNL1        0.0652
     14 C         139.5075  140.7340  169.5172 C.3     1  UNL1        0.0523
     15 N         141.5572  141.8862  170.6224 N.ar    1  UNL1       -0.2282
     16 C         142.9012  142.5409  170.5009 C.ar    1  UNL1        0.1982
     17 N         143.5397  142.6983  169.1527 N.ar    1  UNL1       -0.2283
     18 C         142.8341  142.2008  167.9261 C.ar    1  UNL1        0.0644
     19 C         143.4726  142.3581  166.5778 C.3     1  UNL1        0.0405
     20 C         143.9145  141.7655  165.2726 C.3     1  UNL1        0.0063
     21 C         144.1366  143.2232  165.5479 C.3     1  UNL1        0.0063
     22 C         138.8730  143.9718  163.9834 C.3     1  UNL1        0.0900
     23 C         137.8870  144.6030  164.9212 C.3     1  UNL1        0.0246
     24 C         139.9274  144.8125  163.3266 C.3     1  UNL1        0.0246
     25 N         137.3252  140.0332  160.9683 N.pl3   1  UNL1       -0.3094
     26 H         136.3647  139.8203  161.0052 H       1  UNL1        0.1487
     27 C         138.0830  139.8600  159.6855 C.3     1  UNL1        0.1349
     28 C         138.2826  143.2361  156.7170 C.ar    1  UNL1        0.1247
     29 C         137.3166  142.1081  156.5062 C.ar    1  UNL1        0.0212
     30 C         137.2500  140.9828  157.4956 C.ar    1  UNL1        0.0178
     31 C         138.1496  140.9854  158.6961 C.ar    1  UNL1        0.0789
     32 N         139.1156  142.1133  158.9069 N.ar    1  UNL1       -0.2451
     33 C         139.1821  143.2387  157.9173 C.ar    1  UNL1        0.1168
     34 S         138.3492  144.3614  155.7275 S.O2    1  UNL1        0.0101
     35 O         136.8687  144.2580  155.5103 O.2     1  UNL1       -0.1686
     36 O         139.8297  144.4649  155.9448 O.2     1  UNL1       -0.1686
     37 C         138.7053  146.8819  155.2072 C.3     1  UNL1        0.0276
     38 C         138.4158  145.4869  154.7380 C.3     1  UNL1        0.1560
@<TRIPOS>BOND
     1    37    38    1
     2    38    34    1
     3    34    35    2
     4    34    36    2
     5    34    28    1
     6    28    29   ar
     7    29    30   ar
     8    30    31   ar
     9    31    27    1
    10    27    25    1
    11    25     1    1
    12     1     2   ar
    13     2     3   ar
    14     3     4   ar
    15     4     5   ar
    16     5     6   ar
    17     6    12    1
    18    12    13   ar
    19    13    14    1
    20    13    15   ar
    21    15    16   ar
    22    16    17   ar
    23    17    18   ar
    24    18    19    1
    25    19    20    1
    26    20    21    1
    27     6     7   ar
    28     7     8   ar
    29     8     9   ar
    30     9    22    1
    31    22    23    1
    32    22    24    1
    33     9    10   ar
    34    10    11    2
    35    31    32   ar
    36    32    33   ar
    37    33    28   ar
    38    10     1   ar
    39     8     3   ar
    40    18    12   ar
    41    21    19    1
    42    25    26    1
@<TRIPOS>MOLECULE
*****
 38 42 0 0 0
SMALL
GASTEIGER

@<TRIPOS>ATOM
      1 C         140.0038  143.4176  161.4305 C.ar    1  UNL1        0.1859
      2 N         139.1853  142.6568  162.4311 N.ar    1  UNL1       -0.2217
      3 C         139.7779  142.2863  163.7584 C.ar    1  UNL1        0.1361
      4 C         138.9595  141.5255  164.7590 C.ar    1  UNL1        0.1227
      5 N         139.5521  141.1550  166.0862 N.ar    1  UNL1       -0.2233
      6 C         140.9631  141.5453  166.4128 C.ar    1  UNL1        0.1662
      7 N         141.7816  142.3061  165.4122 N.ar    1  UNL1       -0.2077
      8 C         141.1890  142.6766  164.0850 C.ar    1  UNL1        0.1671
      9 N         142.0074  143.4375  163.0843 N.ar    1  UNL1       -0.2789
     10 C         141.4148  143.8080  161.7571 C.ar    1  UNL1        0.2934
     11 O         142.2332  144.5688  160.7563 O.2     1  UNL1       -0.2639
     12 C         141.5557  141.1748  167.7401 C.ar    1  UNL1        0.0630
     13 C         141.2723  142.0161  168.9491 C.ar    1  UNL1        0.0652
     14 C         140.3963  143.2280  168.8310 C.3     1  UNL1        0.0523
     15 N         141.8649  141.6456  170.2764 N.ar    1  UNL1       -0.2282
     16 C         142.7409  140.4337  170.3946 C.ar    1  UNL1        0.1982
     17 N         143.0244  139.5924  169.1854 N.ar    1  UNL1       -0.2283
     18 C         142.4318  139.9629  167.8582 C.ar    1  UNL1        0.0644
     19 C         142.7152  139.1216  166.6491 C.3     1  UNL1        0.0405
     20 C         143.6960  138.5078  165.6945 C.3     1  UNL1        0.0063
     21 C         142.2253  138.2783  165.5095 C.3     1  UNL1        0.0063
     22 C         143.4184  143.8278  163.4108 C.3     1  UNL1        0.0900
     23 C         144.5480  142.8938  163.0915 C.3     1  UNL1        0.0246
     24 C         143.6999  145.1520  164.0567 C.3     1  UNL1        0.0246
     25 N         139.4112  143.7882  160.1032 N.pl3   1  UNL1       -0.3094
     26 H         139.4117  144.7277  159.8089 H       1  UNL1        0.1487
     27 C         138.8178  142.7273  159.2243 C.3     1  UNL1        0.1349
     28 C         141.2539  139.1145  158.1007 C.ar    1  UNL1        0.1247
     29 C         139.8467  138.9469  158.5922 C.ar    1  UNL1        0.0212
     30 C         139.0346  140.1511  158.9667 C.ar    1  UNL1        0.0178
     31 C         139.6298  141.5231  158.8498 C.ar    1  UNL1        0.0789
     32 N         141.0371  141.6906  158.3583 N.ar    1  UNL1       -0.2451
     33 C         141.8491  140.4863  157.9837 C.ar    1  UNL1        0.1168
     34 S         142.0660  137.9102  157.7261 S.O2    1  UNL1        0.0101
     35 O         140.8772  137.3280  157.0207 O.2     1  UNL1       -0.1686
     36 O         143.2548  138.4924  158.4316 O.2     1  UNL1       -0.1686
     37 C         143.4828  136.6053  155.9826 C.3     1  UNL1        0.0276
     38 C         142.8781  136.7059  157.3516 C.3     1  UNL1        0.1560
@<TRIPOS>BOND
     1    37    38    1
     2    38    34    1
     3    34    35    2
     4    34    36    2
     5    34    28    1
     6    28    29   ar
     7    29    30   ar
     8    30    31   ar
     9    31    27    1
    10    27    25    1
    11    25     1    1
    12     1     2   ar
    13     2     3   ar
    14     3     4   ar
    15     4     5   ar
    16     5     6   ar
    17     6    12    1
    18    12    13   ar
    19    13    14    1
    20    13    15   ar
    21    15    16   ar
    22    16    17   ar
    23    17    18   ar
    24    18    19    1
    25    19    20    1
    26    20    21    1
    27     6     7   ar
    28     7     8   ar
    29     8     9   ar
    30     9    22    1
    31    22    23    1
    32    22    24    1
    33     9    10   ar
    34    10    11    2
    35    31    32   ar
    36    32    33   ar
    37    33    28   ar
    38    10     1   ar
    39     8     3   ar
    40    18    12   ar
    41    21    19    1
    42    25    26    1
@<TRIPOS>MOLECULE
*****
 38 42 0 0 0
SMALL
GASTEIGER

@<TRIPOS>ATOM
      1 C         143.0261  139.2213  159.4330 C.ar    1  UNL1        0.1859
      2 N         142.2961  138.2477  160.3100 N.ar    1  UNL1       -0.2217
      3 C         142.1817  138.5052  161.7834 C.ar    1  UNL1        0.1361
      4 C         141.4517  137.5316  162.6604 C.ar    1  UNL1        0.1227
      5 N         141.3373  137.7892  164.1337 N.ar    1  UNL1       -0.2233
      6 C         141.9528  139.0203  164.7299 C.ar    1  UNL1        0.1662
      7 N         142.6827  139.9939  163.8528 N.ar    1  UNL1       -0.2077
      8 C         142.7972  139.7363  162.3796 C.ar    1  UNL1        0.1671
      9 N         143.5272  140.7099  161.5024 N.ar    1  UNL1       -0.2789
     10 C         143.6416  140.4524  160.0292 C.ar    1  UNL1        0.2934
     11 O         144.3716  141.4260  159.1521 O.2     1  UNL1       -0.2639
     12 C         141.8383  139.2778  166.2032 C.ar    1  UNL1        0.0630
     13 C         142.9280  138.8272  167.1302 C.ar    1  UNL1        0.0652
     14 C         144.1323  138.1192  166.5840 C.3     1  UNL1        0.0523
     15 N         142.8136  139.0848  168.6036 N.ar    1  UNL1       -0.2282
     16 C         141.6093  139.7929  169.1498 C.ar    1  UNL1        0.1982
     17 N         140.5195  140.2434  168.2227 N.ar    1  UNL1       -0.2283
     18 C         140.6340  139.9859  166.7495 C.ar    1  UNL1        0.0644
     19 C         139.5443  140.4365  165.8223 C.3     1  UNL1        0.0405
     20 C         138.8752  141.5244  165.0357 C.3     1  UNL1        0.0063
     21 C         138.3259  140.1290  165.0033 C.3     1  UNL1        0.0063
     22 C         144.1427  141.9411  162.0987 C.3     1  UNL1        0.0900
     23 C         145.4462  141.8466  162.8349 C.3     1  UNL1        0.0246
     24 C         143.4547  143.2666  161.9587 C.3     1  UNL1        0.0246
     25 N         143.1406  138.9637  157.9596 N.pl3   1  UNL1       -0.3094
     26 H         143.9607  139.2178  157.4778 H       1  UNL1        0.1487
     27 C         142.0056  138.3192  157.2205 C.3     1  UNL1        0.1349
     28 C         142.2849  133.9988  155.9931 C.ar    1  UNL1        0.1247
     29 C         141.3126  134.9121  155.3071 C.ar    1  UNL1        0.0212
     30 C         141.2195  136.3522  155.7162 C.ar    1  UNL1        0.0178
     31 C         142.0987  136.8791  156.8114 C.ar    1  UNL1        0.0789
     32 N         143.0710  135.9659  157.4974 N.ar    1  UNL1       -0.2451
     33 C         143.1641  134.5257  157.0883 C.ar    1  UNL1        0.1168
     34 S         142.3781  132.5588  155.5840 S.O2    1  UNL1        0.0101
     35 O         142.4862  132.1564  157.0250 O.2     1  UNL1       -0.1686
     36 O         142.2699  132.9611  154.1431 O.2     1  UNL1       -0.1686
     37 C         141.2214  130.3272  154.9263 C.3     1  UNL1        0.0276
     38 C         142.4712  131.1186  155.1748 C.3     1  UNL1        0.1560
@<TRIPOS>BOND
     1    37    38    1
     2    38    34    1
     3    34    35    2
     4    34    36    2
     5    34    28    1
     6    28    29   ar
     7    29    30   ar
     8    30    31   ar
     9    31    27    1
    10    27    25    1
    11    25     1    1
    12     1     2   ar
    13     2     3   ar
    14     3     4   ar
    15     4     5   ar
    16     5     6   ar
    17     6    12    1
    18    12    13   ar
    19    13    14    1
    20    13    15   ar
    21    15    16   ar
    22    16    17   ar
    23    17    18   ar
    24    18    19    1
    25    19    20    1
    26    20    21    1
    27     6     7   ar
    28     7     8   ar
    29     8     9   ar
    30     9    22    1
    31    22    23    1
    32    22    24    1
    33     9    10   ar
    34    10    11    2
    35    31    32   ar
    36    32    33   ar
    37    33    28   ar
    38    10     1   ar
    39     8     3   ar
    40    18    12   ar
    41    21    19    1
    42    25    26    1
@<TRIPOS>MOLECULE
*****
 38 42 0 0 0
SMALL
GASTEIGER

@<TRIPOS>ATOM
      1 C         140.2216  143.6836  161.6467 C.ar    1  UNL1        0.1859
      2 N         139.3472  142.9431  162.6147 N.ar    1  UNL1       -0.2217
      3 C         139.9027  142.4908  163.9327 C.ar    1  UNL1        0.1361
      4 C         139.0283  141.7504  164.9007 C.ar    1  UNL1        0.1227
      5 N         139.5838  141.2981  166.2186 N.ar    1  UNL1       -0.2233
      6 C         141.0137  141.5863  166.5684 C.ar    1  UNL1        0.1662
      7 N         141.8881  142.3267  165.6004 N.ar    1  UNL1       -0.2077
      8 C         141.3326  142.7790  164.2825 C.ar    1  UNL1        0.1671
      9 N         142.2070  143.5194  163.3144 N.ar    1  UNL1       -0.2789
     10 C         141.6514  143.9717  161.9965 C.ar    1  UNL1        0.2934
     11 O         142.5258  144.7122  161.0284 O.2     1  UNL1       -0.2639
     12 C         141.5692  141.1339  167.8864 C.ar    1  UNL1        0.0630
     13 C         141.2805  141.9194  169.1312 C.ar    1  UNL1        0.0652
     14 C         140.4364  143.1572  169.0582 C.3     1  UNL1        0.0523
     15 N         141.8360  141.4671  170.4492 N.ar    1  UNL1       -0.2282
     16 C         142.6802  140.2293  170.5222 C.ar    1  UNL1        0.1982
     17 N         142.9688  139.4438  169.2772 N.ar    1  UNL1       -0.2283
     18 C         142.4133  139.8962  167.9594 C.ar    1  UNL1        0.0644
     19 C         142.7019  139.1107  166.7144 C.3     1  UNL1        0.0405
     20 C         142.2170  138.3197  165.5358 C.3     1  UNL1        0.0063
     21 C         143.6868  138.5413  165.7368 C.3     1  UNL1        0.0063
     22 C         143.6369  143.8076  163.6642 C.3     1  UNL1        0.0900
     23 C         144.7058  142.8084  163.3338 C.3     1  UNL1        0.0246
     24 C         143.9978  145.0948  164.3443 C.3     1  UNL1        0.0246
     25 N         139.6661  144.1359  160.3287 N.pl3   1  UNL1       -0.3094
     26 H         139.0717  144.9197  160.2880 H       1  UNL1        0.1487
     27 C         140.0161  143.3940  159.0730 C.3     1  UNL1        0.1349
     28 C         136.7620  141.5732  156.5540 C.ar    1  UNL1        0.1247
     29 C         137.4248  142.8460  156.1175 C.ar    1  UNL1        0.0212
     30 C         138.5095  143.4530  156.9571 C.ar    1  UNL1        0.0178
     31 C         138.9314  142.7871  158.2333 C.ar    1  UNL1        0.0789
     32 N         138.2686  141.5142  158.6699 N.ar    1  UNL1       -0.2451
     33 C         137.1839  140.9073  157.8302 C.ar    1  UNL1        0.1168
     34 S         135.6773  140.9662  155.7144 S.O2    1  UNL1        0.0101
     35 O         135.1665  140.2219  156.9123 O.2     1  UNL1       -0.1686
     36 O         136.1881  141.7105  154.5165 O.2     1  UNL1       -0.1686
     37 C         133.1530  140.6137  155.2107 C.3     1  UNL1        0.0276
     38 C         134.5926  140.3593  154.8747 C.3     1  UNL1        0.1560
@<TRIPOS>BOND
     1    37    38    1
     2    38    34    1
     3    34    35    2
     4    34    36    2
     5    34    28    1
     6    28    29   ar
     7    29    30   ar
     8    30    31   ar
     9    31    27    1
    10    27    25    1
    11    25     1    1
    12     1     2   ar
    13     2     3   ar
    14     3     4   ar
    15     4     5   ar
    16     5     6   ar
    17     6    12    1
    18    12    13   ar
    19    13    14    1
    20    13    15   ar
    21    15    16   ar
    22    16    17   ar
    23    17    18   ar
    24    18    19    1
    25    19    20    1
    26    20    21    1
    27     6     7   ar
    28     7     8   ar
    29     8     9   ar
    30     9    22    1
    31    22    23    1
    32    22    24    1
    33     9    10   ar
    34    10    11    2
    35    31    32   ar
    36    32    33   ar
    37    33    28   ar
    38    10     1   ar
    39     8     3   ar
    40    18    12   ar
    41    21    19    1
    42    25    26    1
@<TRIPOS>MOLECULE
*****
 38 42 0 0 0
SMALL
GASTEIGER

@<TRIPOS>ATOM
      1 C         140.8063  141.4952  160.7402 C.ar    1  UNL1        0.1859
      2 N         141.4648  140.4601  161.6032 N.ar    1  UNL1       -0.2217
      3 C         141.2925  140.5054  163.0926 C.ar    1  UNL1        0.1361
      4 C         141.9509  139.4703  163.9557 C.ar    1  UNL1        0.1227
      5 N         141.7786  139.5157  165.4450 N.ar    1  UNL1       -0.2233
      6 C         140.9478  140.5962  166.0713 C.ar    1  UNL1        0.1662
      7 N         140.2893  141.6313  165.2083 N.ar    1  UNL1       -0.2077
      8 C         140.4617  141.5860  163.7189 C.ar    1  UNL1        0.1671
      9 N         139.8032  142.6211  162.8558 N.ar    1  UNL1       -0.2789
     10 C         139.9755  142.5757  161.3665 C.ar    1  UNL1        0.2934
     11 O         139.3170  143.6109  160.5033 O.2     1  UNL1       -0.2639
     12 C         140.7755  140.6416  167.5607 C.ar    1  UNL1        0.0630
     13 C         141.7630  141.3883  168.4076 C.ar    1  UNL1        0.0652
     14 C         142.9229  142.0896  167.7651 C.3     1  UNL1        0.0523
     15 N         141.5907  141.4336  169.8970 N.ar    1  UNL1       -0.2282
     16 C         140.4309  140.7323  170.5395 C.ar    1  UNL1        0.1982
     17 N         139.4433  139.9855  169.6926 N.ar    1  UNL1       -0.2283
     18 C         139.6157  139.9402  168.2032 C.ar    1  UNL1        0.0644
     19 C         138.6281  139.1935  167.3563 C.3     1  UNL1        0.0405
     20 C         138.1279  138.7788  166.0043 C.3     1  UNL1        0.0063
     21 C         137.4178  138.3149  167.2414 C.3     1  UNL1        0.0063
     22 C         138.9724  143.7016  163.4821 C.3     1  UNL1        0.0900
     23 C         137.4863  143.5330  163.5981 C.3     1  UNL1        0.0246
     24 C         139.6275  144.9507  163.9924 C.3     1  UNL1        0.0246
     25 N         140.9786  141.4499  159.2507 N.pl3   1  UNL1       -0.3094
     26 H         140.4585  140.8087  158.7143 H       1  UNL1        0.1487
     27 C         141.9432  142.3813  158.5786 C.3     1  UNL1        0.1349
     28 C         140.4063  145.8541  156.1645 C.ar    1  UNL1        0.1247
     29 C         141.6516  146.0051  156.9869 C.ar    1  UNL1        0.0212
     30 C         142.1639  144.8475  157.7916 C.ar    1  UNL1        0.0178
     31 C         141.4309  143.5389  157.7739 C.ar    1  UNL1        0.0789
     32 N         140.1855  143.3879  156.9515 N.ar    1  UNL1       -0.2451
     33 C         139.6732  144.5456  156.1468 C.ar    1  UNL1        0.1168
     34 S         139.8940  147.0116  155.3598 S.O2    1  UNL1        0.0101
     35 O         140.6543  146.5175  154.1650 O.2     1  UNL1       -0.1686
     36 O         139.1336  147.5057  156.5547 O.2     1  UNL1       -0.1686
     37 C         138.9800  149.4408  155.2421 C.3     1  UNL1        0.0276
     38 C         139.3816  148.1693  154.5551 C.3     1  UNL1        0.1560
@<TRIPOS>BOND
     1    37    38    1
     2    38    34    1
     3    34    35    2
     4    34    36    2
     5    34    28    1
     6    28    29   ar
     7    29    30   ar
     8    30    31   ar
     9    31    27    1
    10    27    25    1
    11    25     1    1
    12     1     2   ar
    13     2     3   ar
    14     3     4   ar
    15     4     5   ar
    16     5     6   ar
    17     6    12    1
    18    12    13   ar
    19    13    14    1
    20    13    15   ar
    21    15    16   ar
    22    16    17   ar
    23    17    18   ar
    24    18    19    1
    25    19    20    1
    26    20    21    1
    27     6     7   ar
    28     7     8   ar
    29     8     9   ar
    30     9    22    1
    31    22    23    1
    32    22    24    1
    33     9    10   ar
    34    10    11    2
    35    31    32   ar
    36    32    33   ar
    37    33    28   ar
    38    10     1   ar
    39     8     3   ar
    40    18    12   ar
    41    21    19    1
    42    25    26    1
@<TRIPOS>MOLECULE
*****
 38 42 0 0 0
SMALL
GASTEIGER

@<TRIPOS>ATOM
      1 C         141.4460  144.4325  161.8919 C.ar    1  UNL1        0.1859
      2 N         142.5805  144.1034  162.8162 N.ar    1  UNL1       -0.2217
      3 C         142.3069  143.4358  164.1314 C.ar    1  UNL1        0.1361
      4 C         143.4414  143.1066  165.0558 C.ar    1  UNL1        0.1227
      5 N         143.1678  142.4390  166.3708 N.ar    1  UNL1       -0.2233
      6 C         141.7597  142.1006  166.7615 C.ar    1  UNL1        0.1662
      7 N         140.6252  142.4297  165.8371 N.ar    1  UNL1       -0.2077
      8 C         140.8988  143.0973  164.5220 C.ar    1  UNL1        0.1671
      9 N         139.7643  143.4264  163.5976 N.ar    1  UNL1       -0.2789
     10 C         140.0379  144.0940  162.2825 C.ar    1  UNL1        0.2934
     11 O         138.9034  144.4232  161.3581 O.2     1  UNL1       -0.2639
     12 C         141.4861  141.4329  168.0766 C.ar    1  UNL1        0.0630
     13 C         140.8567  142.2092  169.1952 C.ar    1  UNL1        0.0652
     14 C         140.5009  143.6530  168.9987 C.3     1  UNL1        0.0523
     15 N         140.5831  141.5415  170.5103 N.ar    1  UNL1       -0.2282
     16 C         140.9390  140.0976  170.7068 C.ar    1  UNL1        0.1982
     17 N         141.5684  139.3214  169.5881 N.ar    1  UNL1       -0.2283
     18 C         141.8419  139.9890  168.2731 C.ar    1  UNL1        0.0644
     19 C         142.4714  139.2128  167.1544 C.3     1  UNL1        0.0405
     20 C         142.3920  138.6215  165.7781 C.3     1  UNL1        0.0063
     21 C         143.6408  138.4597  166.5931 C.3     1  UNL1        0.0063
     22 C         138.3562  143.0880  163.9882 C.3     1  UNL1        0.0900
     23 C         137.7573  141.7767  163.5734 C.3     1  UNL1        0.0246
     24 C         137.5469  144.0607  164.7937 C.3     1  UNL1        0.0246
     25 N         141.7196  145.1002  160.5767 N.pl3   1  UNL1       -0.3094
     26 H         141.7526  146.0825  160.5208 H       1  UNL1        0.1487
     27 C         141.9430  144.2711  159.3468 C.3     1  UNL1        0.1349
     28 C         138.4779  142.1701  157.3900 C.ar    1  UNL1        0.1247
     29 C         139.3521  141.4316  158.3597 C.ar    1  UNL1        0.0212
     30 C         140.5071  142.1319  159.0120 C.ar    1  UNL1        0.0178
     31 C         140.7880  143.5708  158.6946 C.ar    1  UNL1        0.0789
     32 N         139.9138  144.3093  157.7248 N.ar    1  UNL1       -0.2451
     33 C         138.7588  143.6090  157.0725 C.ar    1  UNL1        0.1168
     34 S         137.3229  141.4698  156.7377 S.O2    1  UNL1        0.0101
     35 O         137.3784  142.4414  155.5963 O.2     1  UNL1       -0.1686
     36 O         137.2674  140.4982  157.8791 O.2     1  UNL1       -0.1686
     37 C         136.3825  139.9804  154.8279 C.3     1  UNL1        0.0276
     38 C         136.1679  140.7695  156.0854 C.3     1  UNL1        0.1560
@<TRIPOS>BOND
     1    37    38    1
     2    38    34    1
     3    34    35    2
     4    34    36    2
     5    34    28    1
     6    28    29   ar
     7    29    30   ar
     8    30    31   ar
     9    31    27    1
    10    27    25    1
    11    25     1    1
    12     1     2   ar
    13     2     3   ar
    14     3     4   ar
    15     4     5   ar
    16     5     6   ar
    17     6    12    1
    18    12    13   ar
    19    13    14    1
    20    13    15   ar
    21    15    16   ar
    22    16    17   ar
    23    17    18   ar
    24    18    19    1
    25    19    20    1
    26    20    21    1
    27     6     7   ar
    28     7     8   ar
    29     8     9   ar
    30     9    22    1
    31    22    23    1
    32    22    24    1
    33     9    10   ar
    34    10    11    2
    35    31    32   ar
    36    32    33   ar
    37    33    28   ar
    38    10     1   ar
    39     8     3   ar
    40    18    12   ar
    41    21    19    1
    42    25    26    1
