@<TRIPOS>MOLECULE
*****
 35 38 0 0 0
SMALL
GASTEIGER

@<TRIPOS>ATOM
      1 C         144.0382  141.6639  161.8584 C.3     1  UNL1        0.1493
      2 C         144.1550  142.3534  160.5315 C.3     1  UNL1        0.1040
      3 N         144.1401  141.5499  159.2649 N.3     1  UNL1       -0.2668
      4 C         144.0084  140.0570  159.3252 C.3     1  UNL1        0.0742
      5 C         143.8915  139.3675  160.6522 C.3     1  UNL1        0.0397
      6 C         143.9064  140.1709  161.9188 C.3     1  UNL1        0.1052
      7 N         143.7896  139.4814  163.2458 N.am    1  UNL1       -0.2767
      8 C         144.9899  139.3628  164.1377 C.3     1  UNL1        0.1149
      9 C         142.4726  138.9104  163.6809 C.2     1  UNL1        0.2301
     10 O         141.2724  139.0289  162.7891 O.2     1  UNL1       -0.2745
     11 C         142.3558  138.2208  165.0080 C.3     1  UNL1        0.1116
     12 C         141.9441  138.9977  166.2232 C.ar    1  UNL1       -0.0130
     13 C         142.8925  139.1452  167.3759 C.ar    1  UNL1       -0.0022
     14 C         142.4808  139.9222  168.5912 C.ar    1  UNL1        0.0190
     15 C         141.1207  140.5515  168.6538 C.ar    1  UNL1        0.0862
     16 C         140.1722  140.4039  167.5011 C.ar    1  UNL1        0.0190
     17 C         140.5839  139.6270  166.2858 C.ar    1  UNL1       -0.0022
     18 N         140.7089  141.3284  169.8691 N.ar    1  UNL1       -0.1886
     19 C         141.3327  141.2326  171.2299 C.ar    1  UNL1        0.2258
     20 N         140.6104  142.1825  172.1388 N.ar    1  UNL1       -0.1045
     21 N         139.5403  142.8653  171.3396 N.ar    1  UNL1       -0.0222
     22 N         139.6012  142.3375  169.9369 N.ar    1  UNL1       -0.0385
     23 C         142.7654  142.7920  163.8225 C.3     1  UNL1        0.1741
     24 O         144.0530  142.4673  163.1250 O.3     1  UNL1       -0.3505
     25 C         144.2569  142.2395  157.9378 C.3     1  UNL1        0.0992
     26 C         145.5202  142.1181  157.1382 C.ar    1  UNL1       -0.0062
     27 C         146.7652  142.8214  157.5914 C.ar    1  UNL1       -0.0030
     28 C         148.0285  142.7000  156.7918 C.ar    1  UNL1        0.0036
     29 C         148.0467  141.8753  155.5389 C.ar    1  UNL1        0.0714
     30 C         146.8017  141.1721  155.0858 C.ar    1  UNL1        0.0036
     31 C         145.5385  141.2935  155.8854 C.ar    1  UNL1       -0.0030
     32 C         149.3100  141.7539  154.7393 C.3     1  UNL1        0.4186
     33 F         150.5732  141.6325  153.9397 F       1  UNL1       -0.1659
     34 F         148.5013  141.5413  153.4940 F       1  UNL1       -0.1659
     35 F         150.1187  141.9666  155.9846 F       1  UNL1       -0.1659
@<TRIPOS>BOND
     1    23    24    1
     2     1    24    1
     3     1     2    1
     4     2     3    1
     5     3    25    1
     6    25    26    1
     7    26    27   ar
     8    27    28   ar
     9    28    29   ar
    10    29    32    1
    11    32    33    1
    12    32    34    1
    13    32    35    1
    14    29    30   ar
    15    30    31   ar
    16     3     4    1
    17     4     5    1
    18     5     6    1
    19     6     7    1
    20     7     8    1
    21     7     9   am
    22     9    10    2
    23     9    11    1
    24    11    12    1
    25    12    13   ar
    26    13    14   ar
    27    14    15   ar
    28    15    18    1
    29    18    19   ar
    30    19    20   ar
    31    20    21   ar
    32    21    22   ar
    33    15    16   ar
    34    16    17   ar
    35     6     1    1
    36    17    12   ar
    37    31    26   ar
    38    22    18   ar
@<TRIPOS>MOLECULE
*****
 35 38 0 0 0
SMALL
GASTEIGER

@<TRIPOS>ATOM
      1 C         141.9014  138.7611  160.0504 C.3     1  UNL1        0.1493
      2 C         142.7227  138.0115  159.0437 C.3     1  UNL1        0.1040
      3 N         142.1378  137.6658  157.7064 N.3     1  UNL1       -0.2668
      4 C         140.7316  138.0696  157.3758 C.3     1  UNL1        0.0742
      5 C         139.9102  138.8192  158.3825 C.3     1  UNL1        0.0397
      6 C         140.4951  139.1649  159.7198 C.3     1  UNL1        0.1052
      7 N         139.6737  139.9146  160.7265 N.am    1  UNL1       -0.2767
      8 C         139.5757  141.4095  160.6509 C.3     1  UNL1        0.1149
      9 C         138.9503  139.1693  161.8088 C.2     1  UNL1        0.2301
     10 O         139.0484  137.6744  161.8844 O.2     1  UNL1       -0.2745
     11 C         138.1289  139.9190  162.8155 C.3     1  UNL1        0.1116
     12 C         138.5369  139.9284  164.2589 C.ar    1  UNL1       -0.0130
     13 C         138.1551  138.7866  165.1536 C.ar    1  UNL1       -0.0022
     14 C         138.5630  138.7959  166.5971 C.ar    1  UNL1        0.0190
     15 C         139.3528  139.9471  167.1458 C.ar    1  UNL1        0.0862
     16 C         139.7346  141.0889  166.2510 C.ar    1  UNL1        0.0190
     17 C         139.3266  141.0795  164.8076 C.ar    1  UNL1       -0.0022
     18 N         139.7608  139.9565  168.5891 N.ar    1  UNL1       -0.1886
     19 C         141.1676  140.0038  169.1075 C.ar    1  UNL1        0.2258
     20 N         141.1098  139.9968  170.6063 N.ar    1  UNL1       -0.1045
     21 N         139.6673  139.9452  171.0144 N.ar    1  UNL1       -0.0222
     22 N         138.8335  139.9203  169.7677 N.ar    1  UNL1       -0.0385
     23 C         142.5676  138.0642  162.4630 C.3     1  UNL1        0.1741
     24 O         142.4863  139.1068  161.3877 O.3     1  UNL1       -0.3505
     25 C         142.9592  136.9161  156.6997 C.3     1  UNL1        0.0992
     26 C         142.7377  135.4467  156.4957 C.ar    1  UNL1       -0.0062
     27 C         143.5321  134.4513  157.2884 C.ar    1  UNL1       -0.0030
     28 C         143.3106  132.9818  157.0844 C.ar    1  UNL1        0.0036
     29 C         142.2947  132.5078  156.0877 C.ar    1  UNL1        0.0714
     30 C         141.5004  133.5031  155.2950 C.ar    1  UNL1        0.0036
     31 C         141.7219  134.9726  155.4991 C.ar    1  UNL1       -0.0030
     32 C         142.0732  131.0383  155.8836 C.3     1  UNL1        0.4186
     33 F         141.8517  129.5688  155.6796 F       1  UNL1       -0.1659
     34 F         142.8128  130.7501  157.1565 F       1  UNL1       -0.1659
     35 F         141.3337  131.3265  154.6108 F       1  UNL1       -0.1659
@<TRIPOS>BOND
     1    23    24    1
     2     1    24    1
     3     1     2    1
     4     2     3    1
     5     3    25    1
     6    25    26    1
     7    26    27   ar
     8    27    28   ar
     9    28    29   ar
    10    29    32    1
    11    32    33    1
    12    32    34    1
    13    32    35    1
    14    29    30   ar
    15    30    31   ar
    16     3     4    1
    17     4     5    1
    18     5     6    1
    19     6     7    1
    20     7     8    1
    21     7     9   am
    22     9    10    2
    23     9    11    1
    24    11    12    1
    25    12    13   ar
    26    13    14   ar
    27    14    15   ar
    28    15    18    1
    29    18    19   ar
    30    19    20   ar
    31    20    21   ar
    32    21    22   ar
    33    15    16   ar
    34    16    17   ar
    35     6     1    1
    36    17    12   ar
    37    31    26   ar
    38    22    18   ar
@<TRIPOS>MOLECULE
*****
 35 38 0 0 0
SMALL
GASTEIGER

@<TRIPOS>ATOM
      1 C         139.8523  139.0536  158.7591 C.3     1  UNL1        0.1493
      2 C         140.6953  138.3683  157.7248 C.3     1  UNL1        0.1040
      3 N         142.0838  137.9165  158.0682 N.3     1  UNL1       -0.2668
      4 C         142.6293  138.1499  159.4458 C.3     1  UNL1        0.0742
      5 C         141.7863  138.8351  160.4801 C.3     1  UNL1        0.0397
      6 C         140.3978  139.2870  160.1367 C.3     1  UNL1        0.1052
      7 N         139.5548  139.9723  161.1711 N.am    1  UNL1       -0.2767
      8 C         139.3797  141.4614  161.1294 C.3     1  UNL1        0.1149
      9 C         138.8871  139.1684  162.2471 C.2     1  UNL1        0.2301
     10 O         139.0622  137.6793  162.2888 O.2     1  UNL1       -0.2745
     11 C         138.0441  139.8537  163.2815 C.3     1  UNL1        0.1116
     12 C         138.5358  139.9684  164.6939 C.ar    1  UNL1       -0.0130
     13 C         138.0304  139.0230  165.7430 C.ar    1  UNL1       -0.0022
     14 C         138.5221  139.1376  167.1555 C.ar    1  UNL1        0.0190
     15 C         139.5192  140.1977  167.5188 C.ar    1  UNL1        0.0862
     16 C         140.0246  141.1431  166.4696 C.ar    1  UNL1        0.0190
     17 C         139.5329  141.0284  165.0572 C.ar    1  UNL1       -0.0022
     18 N         140.0109  140.3124  168.9313 N.ar    1  UNL1       -0.1886
     19 C         141.4054  140.6695  169.3532 C.ar    1  UNL1        0.2258
     20 N         141.4508  140.6679  170.8525 N.ar    1  UNL1       -0.1045
     21 N         140.0844  140.3098  171.3572 N.ar    1  UNL1       -0.0222
     22 N         139.1945  140.0900  170.1698 N.ar    1  UNL1       -0.0385
     23 C         138.2602  140.7319  157.5766 C.3     1  UNL1        0.1741
     24 O         138.4638  139.5054  158.4158 O.3     1  UNL1       -0.3505
     25 C         142.9268  137.2312  157.0338 C.3     1  UNL1        0.0992
     26 C         142.6662  135.7958  156.6848 C.ar    1  UNL1       -0.0062
     27 C         141.6816  135.4530  155.6064 C.ar    1  UNL1       -0.0030
     28 C         141.4210  134.0176  155.2574 C.ar    1  UNL1        0.0036
     29 C         142.1451  132.9251  155.9868 C.ar    1  UNL1        0.0714
     30 C         143.1297  133.2679  157.0652 C.ar    1  UNL1        0.0036
     31 C         143.3903  134.7033  157.4142 C.ar    1  UNL1       -0.0030
     32 C         141.8846  131.4897  155.6378 C.3     1  UNL1        0.4186
     33 F         141.6240  130.0543  155.2888 F       1  UNL1       -0.1659
     34 F         140.5381  131.8662  155.0945 F       1  UNL1       -0.1659
     35 F         143.2311  131.1132  156.1812 F       1  UNL1       -0.1659
@<TRIPOS>BOND
     1    23    24    1
     2     1    24    1
     3     1     2    1
     4     2     3    1
     5     3    25    1
     6    25    26    1
     7    26    27   ar
     8    27    28   ar
     9    28    29   ar
    10    29    32    1
    11    32    33    1
    12    32    34    1
    13    32    35    1
    14    29    30   ar
    15    30    31   ar
    16     3     4    1
    17     4     5    1
    18     5     6    1
    19     6     7    1
    20     7     8    1
    21     7     9   am
    22     9    10    2
    23     9    11    1
    24    11    12    1
    25    12    13   ar
    26    13    14   ar
    27    14    15   ar
    28    15    18    1
    29    18    19   ar
    30    19    20   ar
    31    20    21   ar
    32    21    22   ar
    33    15    16   ar
    34    16    17   ar
    35     6     1    1
    36    17    12   ar
    37    31    26   ar
    38    22    18   ar
@<TRIPOS>MOLECULE
*****
 35 38 0 0 0
SMALL
GASTEIGER

@<TRIPOS>ATOM
      1 C         141.6778  138.1304  161.5561 C.3     1  UNL1        0.1493
      2 C         142.5058  137.8927  160.3281 C.3     1  UNL1        0.1040
      3 N         141.8861  138.0249  158.9685 N.3     1  UNL1       -0.2668
      4 C         140.4385  138.3948  158.8368 C.3     1  UNL1        0.0742
      5 C         139.6105  138.6325  160.0648 C.3     1  UNL1        0.0397
      6 C         140.2301  138.5003  161.4244 C.3     1  UNL1        0.1052
      7 N         139.4021  138.7380  162.6524 N.am    1  UNL1       -0.2767
      8 C         138.8331  137.5751  163.4100 C.3     1  UNL1        0.1149
      9 C         139.1429  140.1386  163.1227 C.2     1  UNL1        0.2301
     10 O         139.7118  141.3015  162.3650 O.2     1  UNL1       -0.2745
     11 C         138.3148  140.3763  164.3506 C.3     1  UNL1        0.1116
     12 C         138.9780  140.7647  165.6388 C.ar    1  UNL1       -0.0130
     13 C         139.6354  142.1066  165.7690 C.ar    1  UNL1       -0.0022
     14 C         140.2986  142.4951  167.0572 C.ar    1  UNL1        0.0190
     15 C         140.3042  141.5416  168.2151 C.ar    1  UNL1        0.0862
     16 C         139.6468  140.1996  168.0849 C.ar    1  UNL1        0.0190
     17 C         138.9836  139.8112  166.7967 C.ar    1  UNL1       -0.0022
     18 N         140.9674  141.9300  169.5033 N.ar    1  UNL1       -0.1886
     19 C         142.1560  142.8339  169.6455 C.ar    1  UNL1        0.2258
     20 N         142.4815  142.9453  171.1055 N.ar    1  UNL1       -0.1045
     21 N         141.4941  142.1102  171.8656 N.ar    1  UNL1       -0.0222
     22 N         140.5583  141.4827  170.8753 N.ar    1  UNL1       -0.0385
     23 C         143.5014  138.8179  163.2741 C.3     1  UNL1        0.1741
     24 O         142.2975  137.9982  162.9157 O.3     1  UNL1       -0.3505
     25 C         142.7142  137.7872  157.7405 C.3     1  UNL1        0.0992
     26 C         142.4403  136.5967  156.8701 C.ar    1  UNL1       -0.0062
     27 C         143.3295  135.3910  156.9468 C.ar    1  UNL1       -0.0030
     28 C         143.0555  134.2005  156.0764 C.ar    1  UNL1        0.0036
     29 C         141.8923  134.2157  155.1293 C.ar    1  UNL1        0.0714
     30 C         141.0032  135.4213  155.0527 C.ar    1  UNL1        0.0036
     31 C         141.2772  136.6118  155.9231 C.ar    1  UNL1       -0.0030
     32 C         141.6184  133.0251  154.2589 C.3     1  UNL1        0.4186
     33 F         141.3444  131.8346  153.3884 F       1  UNL1       -0.1659
     34 F         142.5281  133.5855  153.2061 F       1  UNL1       -0.1659
     35 F         140.7087  132.4647  155.3117 F       1  UNL1       -0.1659
@<TRIPOS>BOND
     1    23    24    1
     2     1    24    1
     3     1     2    1
     4     2     3    1
     5     3    25    1
     6    25    26    1
     7    26    27   ar
     8    27    28   ar
     9    28    29   ar
    10    29    32    1
    11    32    33    1
    12    32    34    1
    13    32    35    1
    14    29    30   ar
    15    30    31   ar
    16     3     4    1
    17     4     5    1
    18     5     6    1
    19     6     7    1
    20     7     8    1
    21     7     9   am
    22     9    10    2
    23     9    11    1
    24    11    12    1
    25    12    13   ar
    26    13    14   ar
    27    14    15   ar
    28    15    18    1
    29    18    19   ar
    30    19    20   ar
    31    20    21   ar
    32    21    22   ar
    33    15    16   ar
    34    16    17   ar
    35     6     1    1
    36    17    12   ar
    37    31    26   ar
    38    22    18   ar
@<TRIPOS>MOLECULE
*****
 35 38 0 0 0
SMALL
GASTEIGER

@<TRIPOS>ATOM
      1 C         141.1332  139.9248  161.0179 C.3     1  UNL1        0.1493
      2 C         141.3272  140.3390  159.5894 C.3     1  UNL1        0.1040
      3 N         142.2057  139.5259  158.6854 N.3     1  UNL1       -0.2668
      4 C         142.8901  138.2985  159.2099 C.3     1  UNL1        0.0742
      5 C         142.6960  137.8843  160.6384 C.3     1  UNL1        0.0397
      6 C         141.8176  138.6974  161.5424 C.3     1  UNL1        0.1052
      7 N         141.6236  138.2831  162.9710 N.am    1  UNL1       -0.2767
      8 C         140.4306  137.4602  163.3579 C.3     1  UNL1        0.1149
      9 C         142.6225  138.6918  164.0127 C.2     1  UNL1        0.2301
     10 O         143.8155  139.5147  163.6259 O.2     1  UNL1       -0.2745
     11 C         142.4285  138.2775  165.4413 C.3     1  UNL1        0.1116
     12 C         141.8900  139.2584  166.4401 C.ar    1  UNL1       -0.0130
     13 C         140.4607  139.7058  166.3564 C.ar    1  UNL1       -0.0022
     14 C         139.9221  140.6868  167.3553 C.ar    1  UNL1        0.0190
     15 C         140.8129  141.2203  168.4378 C.ar    1  UNL1        0.0862
     16 C         142.2422  140.7728  168.5215 C.ar    1  UNL1        0.0190
     17 C         142.7807  139.7919  167.5227 C.ar    1  UNL1       -0.0022
     18 N         140.2743  142.2012  169.4367 N.ar    1  UNL1       -0.1886
     19 C         140.5485  143.6758  169.4604 C.ar    1  UNL1        0.2258
     20 N         139.8107  144.2658  170.6256 N.ar    1  UNL1       -0.1045
     21 N         139.0806  143.1557  171.3220 N.ar    1  UNL1       -0.0222
     22 N         139.3672  141.8798  170.5872 N.ar    1  UNL1       -0.0385
     23 C         140.8503  141.8232  162.7689 C.3     1  UNL1        0.1741
     24 O         140.2548  140.7379  161.9219 O.3     1  UNL1       -0.3505
     25 C         142.3997  139.9402  157.2568 C.3     1  UNL1        0.0992
     26 C         143.7428  140.4182  156.7903 C.ar    1  UNL1       -0.0062
     27 C         144.4081  139.7588  155.6187 C.ar    1  UNL1       -0.0030
     28 C         145.7513  140.2368  155.1523 C.ar    1  UNL1        0.0036
     29 C         146.4290  141.3742  155.8574 C.ar    1  UNL1        0.0714
     30 C         145.7636  142.0335  157.0290 C.ar    1  UNL1        0.0036
     31 C         144.4205  141.5555  157.4954 C.ar    1  UNL1       -0.0030
     32 C         147.7721  141.8522  155.3909 C.3     1  UNL1        0.4186
     33 F         149.1152  142.3302  154.9245 F       1  UNL1       -0.1659
     34 F         148.0468  142.4118  156.7553 F       1  UNL1       -0.1659
     35 F         147.4974  141.2925  154.0266 F       1  UNL1       -0.1659
@<TRIPOS>BOND
     1    23    24    1
     2     1    24    1
     3     1     2    1
     4     2     3    1
     5     3    25    1
     6    25    26    1
     7    26    27   ar
     8    27    28   ar
     9    28    29   ar
    10    29    32    1
    11    32    33    1
    12    32    34    1
    13    32    35    1
    14    29    30   ar
    15    30    31   ar
    16     3     4    1
    17     4     5    1
    18     5     6    1
    19     6     7    1
    20     7     8    1
    21     7     9   am
    22     9    10    2
    23     9    11    1
    24    11    12    1
    25    12    13   ar
    26    13    14   ar
    27    14    15   ar
    28    15    18    1
    29    18    19   ar
    30    19    20   ar
    31    20    21   ar
    32    21    22   ar
    33    15    16   ar
    34    16    17   ar
    35     6     1    1
    36    17    12   ar
    37    31    26   ar
    38    22    18   ar
@<TRIPOS>MOLECULE
*****
 35 38 0 0 0
SMALL
GASTEIGER

@<TRIPOS>ATOM
      1 C         141.5192  139.2894  160.4145 C.3     1  UNL1        0.1493
      2 C         141.1044  138.6215  159.1370 C.3     1  UNL1        0.1040
      3 N         141.9563  138.7556  157.9097 N.3     1  UNL1       -0.2668
      4 C         143.2229  139.5576  157.9598 C.3     1  UNL1        0.0742
      5 C         143.6376  140.2255  159.2372 C.3     1  UNL1        0.0397
      6 C         142.7858  140.0913  160.4646 C.3     1  UNL1        0.1052
      7 N         143.2006  140.7592  161.7421 N.am    1  UNL1       -0.2767
      8 C         142.9612  142.2277  161.9327 C.3     1  UNL1        0.1149
      9 C         143.8547  139.9587  162.8289 C.2     1  UNL1        0.2301
     10 O         144.0941  138.4903  162.6383 O.2     1  UNL1       -0.2745
     11 C         144.2695  140.6266  164.1064 C.3     1  UNL1        0.1116
     12 C         143.3053  140.7192  165.2517 C.ar    1  UNL1       -0.0130
     13 C         142.7200  139.4707  165.8420 C.ar    1  UNL1       -0.0022
     14 C         141.7557  139.5633  166.9874 C.ar    1  UNL1        0.0190
     15 C         141.3769  140.9044  167.5423 C.ar    1  UNL1        0.0862
     16 C         141.9624  142.1530  166.9519 C.ar    1  UNL1        0.0190
     17 C         142.9265  142.0603  165.8066 C.ar    1  UNL1       -0.0022
     18 N         140.4128  140.9970  168.6876 N.ar    1  UNL1       -0.1886
     19 C         140.2507  142.1678  169.6113 C.ar    1  UNL1        0.2258
     20 N         139.1791  141.8295  170.6049 N.ar    1  UNL1       -0.1045
     21 N         138.6789  140.4496  170.2953 N.ar    1  UNL1       -0.0222
     22 N         139.4414  139.9352  169.1104 N.ar    1  UNL1       -0.0385
     23 C         140.5332  137.8240  162.3199 C.3     1  UNL1        0.1741
     24 O         140.6673  139.1552  161.6418 O.3     1  UNL1       -0.3505
     25 C         141.5415  138.0877  156.6322 C.3     1  UNL1        0.0992
     26 C         141.8547  136.6380  156.4078 C.ar    1  UNL1       -0.0062
     27 C         142.9575  135.9802  157.1832 C.ar    1  UNL1       -0.0030
     28 C         143.2707  134.5306  156.9588 C.ar    1  UNL1        0.0036
     29 C         142.4811  133.7387  155.9590 C.ar    1  UNL1        0.0714
     30 C         141.3783  134.3965  155.1837 C.ar    1  UNL1        0.0036
     31 C         141.0651  135.8462  155.4081 C.ar    1  UNL1       -0.0030
     32 C         142.7943  132.2890  155.7347 C.3     1  UNL1        0.4186
     33 F         143.1074  130.8393  155.5103 F       1  UNL1       -0.1659
     34 F         142.6292  132.0262  157.2022 F       1  UNL1       -0.1659
     35 F         142.9593  132.5518  154.2671 F       1  UNL1       -0.1659
@<TRIPOS>BOND
     1    23    24    1
     2     1    24    1
     3     1     2    1
     4     2     3    1
     5     3    25    1
     6    25    26    1
     7    26    27   ar
     8    27    28   ar
     9    28    29   ar
    10    29    32    1
    11    32    33    1
    12    32    34    1
    13    32    35    1
    14    29    30   ar
    15    30    31   ar
    16     3     4    1
    17     4     5    1
    18     5     6    1
    19     6     7    1
    20     7     8    1
    21     7     9   am
    22     9    10    2
    23     9    11    1
    24    11    12    1
    25    12    13   ar
    26    13    14   ar
    27    14    15   ar
    28    15    18    1
    29    18    19   ar
    30    19    20   ar
    31    20    21   ar
    32    21    22   ar
    33    15    16   ar
    34    16    17   ar
    35     6     1    1
    36    17    12   ar
    37    31    26   ar
    38    22    18   ar
@<TRIPOS>MOLECULE
*****
 35 38 0 0 0
SMALL
GASTEIGER

@<TRIPOS>ATOM
      1 C         139.8759  142.1198  160.6068 C.3     1  UNL1        0.1493
      2 C         139.9088  142.6243  159.1946 C.3     1  UNL1        0.1040
      3 N         139.2192  141.8550  158.1071 N.3     1  UNL1       -0.2668
      4 C         138.4968  140.5812  158.4318 C.3     1  UNL1        0.0742
      5 C         138.4639  140.0767  159.8440 C.3     1  UNL1        0.0397
      6 C         139.1535  140.8460  160.9315 C.3     1  UNL1        0.1052
      7 N         139.1206  140.3414  162.3438 N.am    1  UNL1       -0.2767
      8 C         140.1047  139.3019  162.7919 C.3     1  UNL1        0.1149
      9 C         138.1035  140.8764  163.3078 C.2     1  UNL1        0.2301
     10 O         137.1194  141.9160  162.8597 O.2     1  UNL1       -0.2745
     11 C         138.0706  140.3719  164.7201 C.3     1  UNL1        0.1116
     12 C         139.0490  140.8986  165.7277 C.ar    1  UNL1       -0.0130
     13 C         139.6588  142.2564  165.5422 C.ar    1  UNL1       -0.0022
     14 C         140.6372  142.7832  166.5498 C.ar    1  UNL1        0.0190
     15 C         141.0058  141.9522  167.7429 C.ar    1  UNL1        0.0862
     16 C         140.3959  140.5943  167.9284 C.ar    1  UNL1        0.0190
     17 C         139.4175  140.0676  166.9208 C.ar    1  UNL1       -0.0022
     18 N         141.9841  142.4789  168.7505 N.ar    1  UNL1       -0.1886
     19 C         141.6401  143.1967  170.0219 C.ar    1  UNL1        0.2258
     20 N         142.9216  143.5418  170.7208 N.ar    1  UNL1       -0.1045
     21 N         144.0578  143.0372  169.8814 N.ar    1  UNL1       -0.0222
     22 N         143.4783  142.3803  168.6637 N.ar    1  UNL1       -0.0385
     23 C         139.9274  144.1229  162.2605 C.3     1  UNL1        0.1741
     24 O         140.5654  142.8891  161.6944 O.3     1  UNL1       -0.3505
     25 C         139.2521  142.3595  156.6949 C.3     1  UNL1        0.0992
     26 C         139.1591  143.8316  156.4220 C.ar    1  UNL1       -0.0062
     27 C         140.0772  144.7848  157.1282 C.ar    1  UNL1       -0.0030
     28 C         139.9841  146.2568  156.8554 C.ar    1  UNL1        0.0036
     29 C         138.9730  146.7757  155.8763 C.ar    1  UNL1        0.0714
     30 C         138.0550  145.8225  155.1702 C.ar    1  UNL1        0.0036
     31 C         138.1480  144.3505  155.4430 C.ar    1  UNL1       -0.0030
     32 C         138.8799  148.2477  155.6035 C.3     1  UNL1        0.4186
     33 F         138.7869  149.7197  155.3306 F       1  UNL1       -0.1659
     34 F         139.1892  147.9991  154.1569 F       1  UNL1       -0.1659
     35 F         138.5707  148.4963  157.0500 F       1  UNL1       -0.1659
@<TRIPOS>BOND
     1    23    24    1
     2     1    24    1
     3     1     2    1
     4     2     3    1
     5     3    25    1
     6    25    26    1
     7    26    27   ar
     8    27    28   ar
     9    28    29   ar
    10    29    32    1
    11    32    33    1
    12    32    34    1
    13    32    35    1
    14    29    30   ar
    15    30    31   ar
    16     3     4    1
    17     4     5    1
    18     5     6    1
    19     6     7    1
    20     7     8    1
    21     7     9   am
    22     9    10    2
    23     9    11    1
    24    11    12    1
    25    12    13   ar
    26    13    14   ar
    27    14    15   ar
    28    15    18    1
    29    18    19   ar
    30    19    20   ar
    31    20    21   ar
    32    21    22   ar
    33    15    16   ar
    34    16    17   ar
    35     6     1    1
    36    17    12   ar
    37    31    26   ar
    38    22    18   ar
@<TRIPOS>MOLECULE
*****
 35 38 0 0 0
SMALL
GASTEIGER

@<TRIPOS>ATOM
      1 C         140.1235  140.5882  160.2929 C.3     1  UNL1        0.1493
      2 C         139.2607  141.0162  161.4428 C.3     1  UNL1        0.1040
      3 N         138.8469  140.0173  162.4825 N.3     1  UNL1       -0.2668
      4 C         139.2958  138.5903  162.3722 C.3     1  UNL1        0.0742
      5 C         140.1586  138.1623  161.2223 C.3     1  UNL1        0.0397
      6 C         140.5725  139.1612  160.1827 C.3     1  UNL1        0.1052
      7 N         141.4353  138.7331  159.0327 N.am    1  UNL1       -0.2767
      8 C         142.9272  138.8556  159.1283 C.3     1  UNL1        0.1149
      9 C         140.8062  138.1827  157.7873 C.2     1  UNL1        0.2301
     10 O         139.3143  138.0602  157.6917 O.2     1  UNL1       -0.2745
     11 C         141.6691  137.7546  156.6373 C.3     1  UNL1        0.1116
     12 C         142.0489  136.3119  156.4810 C.ar    1  UNL1       -0.0130
     13 C         141.2927  135.4365  155.5262 C.ar    1  UNL1       -0.0022
     14 C         141.6725  133.9938  155.3698 C.ar    1  UNL1        0.0190
     15 C         142.8085  133.4266  156.1684 C.ar    1  UNL1        0.0862
     16 C         143.5647  134.3020  157.1233 C.ar    1  UNL1        0.0190
     17 C         143.1849  135.7447  157.2796 C.ar    1  UNL1       -0.0022
     18 N         143.1883  131.9839  156.0121 N.ar    1  UNL1       -0.1886
     19 C         144.5850  131.4452  155.9167 C.ar    1  UNL1        0.2258
     20 N         144.4981  129.9550  155.7694 N.ar    1  UNL1       -0.1045
     21 N         143.0476  129.5727  155.7738 N.ar    1  UNL1       -0.0222
     22 N         142.2381  130.8266  155.9238 N.ar    1  UNL1       -0.0385
     23 C         141.5080  142.6757  159.6035 C.3     1  UNL1        0.1741
     24 O         140.5373  141.5871  159.2533 O.3     1  UNL1       -0.3505
     25 C         137.9840  140.4454  163.6324 C.3     1  UNL1        0.0992
     26 C         138.5050  140.3531  165.0360 C.ar    1  UNL1       -0.0062
     27 C         139.4974  141.3610  165.5355 C.ar    1  UNL1       -0.0030
     28 C         140.0184  141.2687  166.9390 C.ar    1  UNL1        0.0036
     29 C         139.5470  140.1685  167.8432 C.ar    1  UNL1        0.0714
     30 C         138.5547  139.1606  167.3437 C.ar    1  UNL1        0.0036
     31 C         138.0337  139.2529  165.9401 C.ar    1  UNL1       -0.0030
     32 C         140.0680  140.0762  169.2468 C.3     1  UNL1        0.4186
     33 F         140.5890  139.9839  170.6503 F       1  UNL1       -0.1659
     34 F         138.8057  140.7058  169.7567 F       1  UNL1       -0.1659
     35 F         141.3304  139.4465  168.7368 F       1  UNL1       -0.1659
@<TRIPOS>BOND
     1    23    24    1
     2     1    24    1
     3     1     2    1
     4     2     3    1
     5     3    25    1
     6    25    26    1
     7    26    27   ar
     8    27    28   ar
     9    28    29   ar
    10    29    32    1
    11    32    33    1
    12    32    34    1
    13    32    35    1
    14    29    30   ar
    15    30    31   ar
    16     3     4    1
    17     4     5    1
    18     5     6    1
    19     6     7    1
    20     7     8    1
    21     7     9   am
    22     9    10    2
    23     9    11    1
    24    11    12    1
    25    12    13   ar
    26    13    14   ar
    27    14    15   ar
    28    15    18    1
    29    18    19   ar
    30    19    20   ar
    31    20    21   ar
    32    21    22   ar
    33    15    16   ar
    34    16    17   ar
    35     6     1    1
    36    17    12   ar
    37    31    26   ar
    38    22    18   ar
@<TRIPOS>MOLECULE
*****
 35 38 0 0 0
SMALL
GASTEIGER

@<TRIPOS>ATOM
      1 C         143.3542  140.5620  159.3929 C.3     1  UNL1        0.1493
      2 C         142.7892  139.9218  158.1597 C.3     1  UNL1        0.1040
      3 N         141.7043  138.8928  158.2787 N.3     1  UNL1       -0.2668
      4 C         141.1845  138.5040  159.6309 C.3     1  UNL1        0.0742
      5 C         141.7495  139.1441  160.8641 C.3     1  UNL1        0.0397
      6 C         142.8344  140.1731  160.7451 C.3     1  UNL1        0.1052
      7 N         143.3994  140.8133  161.9784 N.am    1  UNL1       -0.2767
      8 C         144.4215  140.0853  162.8002 C.3     1  UNL1        0.1149
      9 C         142.9423  142.1814  162.3899 C.2     1  UNL1        0.2301
     10 O         141.9202  142.9094  161.5681 O.2     1  UNL1       -0.2745
     11 C         143.5073  142.8216  163.6232 C.3     1  UNL1        0.1116
     12 C         142.7508  142.7548  164.9167 C.ar    1  UNL1       -0.0130
     13 C         141.2938  143.1096  164.9525 C.ar    1  UNL1       -0.0022
     14 C         140.5372  143.0428  166.2461 C.ar    1  UNL1        0.0190
     15 C         141.2376  142.6212  167.5037 C.ar    1  UNL1        0.0862
     16 C         142.6947  142.2664  167.4678 C.ar    1  UNL1        0.0190
     17 C         143.4512  142.3332  166.1743 C.ar    1  UNL1       -0.0022
     18 N         140.4811  142.5544  168.7972 N.ar    1  UNL1       -0.1886
     19 C         139.8253  141.3344  169.3731 C.ar    1  UNL1        0.2258
     20 N         139.1864  141.7219  170.6737 N.ar    1  UNL1       -0.1045
     21 N         139.4473  143.1813  170.9016 N.ar    1  UNL1       -0.0222
     22 N         140.2475  143.6958  169.7419 N.ar    1  UNL1       -0.0385
     23 C         144.7460  142.2066  157.9410 C.3     1  UNL1        0.1741
     24 O         144.4391  141.5910  159.2739 O.3     1  UNL1       -0.3505
     25 C         141.1393  138.2526  157.0454 C.3     1  UNL1        0.0992
     26 C         141.6672  136.9284  156.5786 C.ar    1  UNL1       -0.0062
     27 C         142.9492  136.3912  157.1426 C.ar    1  UNL1       -0.0030
     28 C         143.4772  135.0670  156.6759 C.ar    1  UNL1        0.0036
     29 C         142.7231  134.2801  155.6452 C.ar    1  UNL1        0.0714
     30 C         141.4412  134.8173  155.0813 C.ar    1  UNL1        0.0036
     31 C         140.9133  136.1415  155.5480 C.ar    1  UNL1       -0.0030
     32 C         143.2511  132.9559  155.1785 C.3     1  UNL1        0.4186
     33 F         143.7790  131.6317  154.7118 F       1  UNL1       -0.1659
     34 F         144.4590  133.1301  156.0506 F       1  UNL1       -0.1659
     35 F         142.0431  132.7816  154.3065 F       1  UNL1       -0.1659
@<TRIPOS>BOND
     1    23    24    1
     2     1    24    1
     3     1     2    1
     4     2     3    1
     5     3    25    1
     6    25    26    1
     7    26    27   ar
     8    27    28   ar
     9    28    29   ar
    10    29    32    1
    11    32    33    1
    12    32    34    1
    13    32    35    1
    14    29    30   ar
    15    30    31   ar
    16     3     4    1
    17     4     5    1
    18     5     6    1
    19     6     7    1
    20     7     8    1
    21     7     9   am
    22     9    10    2
    23     9    11    1
    24    11    12    1
    25    12    13   ar
    26    13    14   ar
    27    14    15   ar
    28    15    18    1
    29    18    19   ar
    30    19    20   ar
    31    20    21   ar
    32    21    22   ar
    33    15    16   ar
    34    16    17   ar
    35     6     1    1
    36    17    12   ar
    37    31    26   ar
    38    22    18   ar
