@<TRIPOS>MOLECULE
*****
 34 37 0 0 0
SMALL
GASTEIGER

@<TRIPOS>ATOM
      1 C         143.1582  139.9498  170.6359 C.3     1  UNL1        0.0343
      2 C         142.3774  141.0306  169.9486 C.ar    1  UNL1        0.0160
      3 C         141.8443  142.1888  170.7387 C.ar    1  UNL1        0.1298
      4 O         142.0920  142.2663  172.2161 O.3     1  UNL1       -0.5058
      5 C         141.0636  143.2696  170.0514 C.ar    1  UNL1        0.0360
      6 C         140.8159  143.1921  168.5741 C.ar    1  UNL1        0.0010
      7 C         141.3490  142.0339  167.7840 C.ar    1  UNL1        0.0088
      8 C         142.1297  140.9531  168.4713 C.ar    1  UNL1        0.0506
      9 C         142.5277  139.9406  167.4385 C.2     1  UNL1        0.2493
     10 O         143.3212  138.6923  167.6877 O.2     1  UNL1       -0.2699
     11 N         141.9930  140.3956  166.1130 N.am    1  UNL1       -0.2620
     12 C         141.2645  141.6893  166.3266 C.3     1  UNL1        0.1753
     13 H         142.5797  141.5912  172.6455 H       1  UNL1        0.2922
     14 C         140.5728  142.4968  165.2684 C.2     1  UNL1        0.2448
     15 O         141.3781  143.3172  164.3049 O.2     1  UNL1       -0.2729
     16 N         139.0758  142.4837  165.1737 N.am    1  UNL1       -0.3059
     17 H         138.5472  141.9452  165.8061 H       1  UNL1        0.1494
     18 C         138.3842  143.2912  164.1156 C.3     1  UNL1        0.0569
     19 C         138.3674  142.0934  163.2127 C.3     1  UNL1        0.0196
     20 C         138.4010  144.4889  165.0185 C.3     1  UNL1        0.0196
     21 C         137.6926  144.0986  163.0574 C.3     1  UNL1        0.0196
     22 C         142.1577  139.6822  164.8039 C.3     1  UNL1        0.1212
     23 C         140.9841  138.9949  164.1714 C.ar    1  UNL1       -0.0023
     24 C         139.9822  138.2798  165.0287 C.ar    1  UNL1       -0.0026
     25 C         138.8085  137.5925  164.3962 C.ar    1  UNL1       -0.0003
     26 C         138.6367  137.6202  162.9064 C.ar    1  UNL1       -0.0000
     27 C         139.6385  138.3352  162.0490 C.ar    1  UNL1       -0.0003
     28 C         140.8123  139.0226  162.6815 C.ar    1  UNL1       -0.0024
     29 C         141.8141  139.7375  161.8242 C.ar    1  UNL1       -0.0003
     30 C         141.6448  141.1993  161.5331 C.ar    1  UNL1       -0.0000
     31 C         142.6466  141.9142  160.6758 C.ar    1  UNL1       -0.0000
     32 C         143.8178  141.1675  160.1094 C.ar    1  UNL1       -0.0000
     33 C         143.9871  139.7058  160.4004 C.ar    1  UNL1       -0.0000
     34 C         142.9852  138.9908  161.2578 C.ar    1  UNL1       -0.0000
@<TRIPOS>BOND
     1     1     2    1
     2     2     3   ar
     3     3     4    1
     4     3     5   ar
     5     5     6   ar
     6     6     7   ar
     7     7     8   ar
     8     8     9    1
     9     9    10    2
    10     9    11   am
    11    11    22    1
    12    22    23    1
    13    23    24   ar
    14    24    25   ar
    15    25    26   ar
    16    26    27   ar
    17    27    28   ar
    18    28    29    1
    19    29    30   ar
    20    30    31   ar
    21    31    32   ar
    22    32    33   ar
    23    33    34   ar
    24    11    12    1
    25    12    14    1
    26    14    15    2
    27    14    16   am
    28    16    18    1
    29    18    19    1
    30    18    20    1
    31    18    21    1
    32     8     2   ar
    33    28    23   ar
    34    34    29   ar
    35    12     7    1
    36     4    13    1
    37    16    17    1
@<TRIPOS>MOLECULE
*****
 34 37 0 0 0
SMALL
GASTEIGER

@<TRIPOS>ATOM
      1 C         139.9148  139.6301  170.8948 C.3     1  UNL1        0.0343
      2 C         140.9839  140.3174  170.0982 C.ar    1  UNL1        0.0160
      3 C         142.2422  140.7782  170.7723 C.ar    1  UNL1        0.1298
      4 O         142.4315  140.5516  172.2430 O.3     1  UNL1       -0.5058
      5 C         143.3114  141.4655  169.9757 C.ar    1  UNL1        0.0360
      6 C         143.1222  141.6921  168.5050 C.ar    1  UNL1        0.0010
      7 C         141.8639  141.2314  167.8310 C.ar    1  UNL1        0.0088
      8 C         140.7948  140.5440  168.6276 C.ar    1  UNL1        0.0506
      9 C         139.6696  140.2031  167.6961 C.2     1  UNL1        0.2493
     10 O         138.3945  139.5077  168.0711 O.2     1  UNL1       -0.2699
     11 N         140.0433  140.6797  166.3238 N.am    1  UNL1       -0.2620
     12 C         141.3994  141.3152  166.4072 C.3     1  UNL1        0.1753
     13 H         141.7636  140.1222  172.7406 H       1  UNL1        0.2922
     14 C         142.1580  141.9271  165.2669 C.2     1  UNL1        0.2448
     15 O         142.8443  141.0472  164.2646 O.2     1  UNL1       -0.2729
     16 N         142.2302  143.4191  165.1290 N.am    1  UNL1       -0.3059
     17 H         141.7798  143.9966  165.7869 H       1  UNL1        0.1494
     18 C         142.9888  144.0310  163.9888 C.3     1  UNL1        0.0569
     19 C         144.2432  144.0079  164.8110 C.3     1  UNL1        0.0196
     20 C         141.7344  144.0541  163.1666 C.3     1  UNL1        0.0196
     21 C         143.7474  144.6429  162.8486 C.3     1  UNL1        0.0196
     22 C         139.2075  140.5445  165.0855 C.3     1  UNL1        0.1212
     23 C         138.7180  141.7706  164.3735 C.ar    1  UNL1       -0.0023
     24 C         138.3786  143.0059  165.1540 C.ar    1  UNL1       -0.0026
     25 C         137.8891  144.2320  164.4420 C.ar    1  UNL1       -0.0003
     26 C         137.7389  144.2229  162.9496 C.ar    1  UNL1       -0.0000
     27 C         138.0782  142.9878  162.1691 C.ar    1  UNL1       -0.0003
     28 C         138.5678  141.7616  162.8811 C.ar    1  UNL1       -0.0024
     29 C         138.9072  140.5264  162.1006 C.ar    1  UNL1       -0.0003
     30 C         137.9128  139.4082  161.9966 C.ar    1  UNL1       -0.0000
     31 C         138.2522  138.1730  161.2161 C.ar    1  UNL1       -0.0000
     32 C         139.5859  138.0560  160.5397 C.ar    1  UNL1       -0.0000
     33 C         140.5803  139.1743  160.6437 C.ar    1  UNL1       -0.0000
     34 C         140.2408  140.4095  161.4242 C.ar    1  UNL1       -0.0000
@<TRIPOS>BOND
     1     1     2    1
     2     2     3   ar
     3     3     4    1
     4     3     5   ar
     5     5     6   ar
     6     6     7   ar
     7     7     8   ar
     8     8     9    1
     9     9    10    2
    10     9    11   am
    11    11    22    1
    12    22    23    1
    13    23    24   ar
    14    24    25   ar
    15    25    26   ar
    16    26    27   ar
    17    27    28   ar
    18    28    29    1
    19    29    30   ar
    20    30    31   ar
    21    31    32   ar
    22    32    33   ar
    23    33    34   ar
    24    11    12    1
    25    12    14    1
    26    14    15    2
    27    14    16   am
    28    16    18    1
    29    18    19    1
    30    18    20    1
    31    18    21    1
    32     8     2   ar
    33    28    23   ar
    34    34    29   ar
    35    12     7    1
    36     4    13    1
    37    16    17    1
@<TRIPOS>MOLECULE
*****
 34 37 0 0 0
SMALL
GASTEIGER

@<TRIPOS>ATOM
      1 C         143.2158  140.0435  170.6734 C.3     1  UNL1        0.0343
      2 C         142.3154  141.0436  170.0107 C.ar    1  UNL1        0.0160
      3 C         141.8018  142.2201  170.7866 C.ar    1  UNL1        0.1298
      4 O         142.1885  142.3965  172.2252 O.3     1  UNL1       -0.5058
      5 C         140.9014  143.2202  170.1240 C.ar    1  UNL1        0.0360
      6 C         140.5147  143.0439  168.6855 C.ar    1  UNL1        0.0010
      7 C         141.0283  141.8674  167.9096 C.ar    1  UNL1        0.0088
      8 C         141.9287  140.8673  168.5723 C.ar    1  UNL1        0.0506
      9 C         142.2766  139.8154  167.5611 C.2     1  UNL1        0.2493
     10 O         143.1556  138.6229  167.7962 O.2     1  UNL1       -0.2699
     11 N         141.5913  140.1654  166.2735 N.am    1  UNL1       -0.2620
     12 C         140.8198  141.4336  166.4889 C.3     1  UNL1        0.1753
     13 H         142.7509  141.7718  172.6391 H       1  UNL1        0.2922
     14 C         139.9862  142.1434  165.4637 C.2     1  UNL1        0.2448
     15 O         138.7845  141.4662  164.8745 O.2     1  UNL1       -0.2729
     16 N         140.3542  143.5307  165.0275 N.am    1  UNL1       -0.3059
     17 H         141.1429  143.9753  165.4142 H       1  UNL1        0.1494
     18 C         139.5206  144.2406  164.0023 C.3     1  UNL1        0.0569
     19 C         138.5821  144.6954  165.0805 C.3     1  UNL1        0.0196
     20 C         140.4591  143.7856  162.9242 C.3     1  UNL1        0.0196
     21 C         138.6869  144.9504  162.9771 C.3     1  UNL1        0.0196
     22 C         141.6646  139.3843  164.9950 C.3     1  UNL1        0.1212
     23 C         142.5643  139.8435  163.8861 C.ar    1  UNL1       -0.0023
     24 C         143.9941  140.1925  164.1762 C.ar    1  UNL1       -0.0026
     25 C         144.8938  140.6516  163.0673 C.ar    1  UNL1       -0.0003
     26 C         144.3638  140.7618  161.6684 C.ar    1  UNL1       -0.0000
     27 C         142.9341  140.4128  161.3783 C.ar    1  UNL1       -0.0003
     28 C         142.0343  139.9536  162.4872 C.ar    1  UNL1       -0.0024
     29 C         140.6047  139.6047  162.1972 C.ar    1  UNL1       -0.0003
     30 C         140.1257  138.1945  162.3761 C.ar    1  UNL1       -0.0000
     31 C         138.6960  137.8455  162.0861 C.ar    1  UNL1       -0.0000
     32 C         137.7452  138.9067  161.6170 C.ar    1  UNL1       -0.0000
     33 C         138.2242  140.3169  161.4380 C.ar    1  UNL1       -0.0000
     34 C         139.6540  140.6658  161.7281 C.ar    1  UNL1       -0.0000
@<TRIPOS>BOND
     1     1     2    1
     2     2     3   ar
     3     3     4    1
     4     3     5   ar
     5     5     6   ar
     6     6     7   ar
     7     7     8   ar
     8     8     9    1
     9     9    10    2
    10     9    11   am
    11    11    22    1
    12    22    23    1
    13    23    24   ar
    14    24    25   ar
    15    25    26   ar
    16    26    27   ar
    17    27    28   ar
    18    28    29    1
    19    29    30   ar
    20    30    31   ar
    21    31    32   ar
    22    32    33   ar
    23    33    34   ar
    24    11    12    1
    25    12    14    1
    26    14    15    2
    27    14    16   am
    28    16    18    1
    29    18    19    1
    30    18    20    1
    31    18    21    1
    32     8     2   ar
    33    28    23   ar
    34    34    29   ar
    35    12     7    1
    36     4    13    1
    37    16    17    1
@<TRIPOS>MOLECULE
*****
 34 37 0 0 0
SMALL
GASTEIGER

@<TRIPOS>ATOM
      1 C         140.0832  145.6317  160.5978 C.3     1  UNL1        0.0343
      2 C         141.1723  144.6572  160.9355 C.ar    1  UNL1        0.0160
      3 C         142.2272  144.3300  159.9205 C.ar    1  UNL1        0.1298
      4 O         142.1930  144.9774  158.5678 O.3     1  UNL1       -0.5058
      5 C         143.3164  143.3555  160.2582 C.ar    1  UNL1        0.0360
      6 C         143.3506  142.7081  161.6108 C.ar    1  UNL1        0.0010
      7 C         142.2957  143.0352  162.6258 C.ar    1  UNL1        0.0088
      8 C         141.2066  144.0097  162.2881 C.ar    1  UNL1        0.0506
      9 C         140.3096  144.1350  163.4838 C.2     1  UNL1        0.2493
     10 O         139.0917  145.0047  163.5850 O.2     1  UNL1       -0.2699
     11 N         140.8443  143.2379  164.5605 N.am    1  UNL1       -0.2620
     12 C         142.0718  142.5582  164.0302 C.3     1  UNL1        0.1753
     13 H         141.5127  145.5862  158.3568 H       1  UNL1        0.2922
     14 C         142.9256  141.5742  164.7737 C.2     1  UNL1        0.2448
     15 O         143.9453  142.0610  165.7601 O.2     1  UNL1       -0.2729
     16 N         142.7596  140.1033  164.5308 N.am    1  UNL1       -0.3059
     17 H         142.0903  139.7837  163.8834 H       1  UNL1        0.1494
     18 C         143.6133  139.1193  165.2744 C.3     1  UNL1        0.0569
     19 C         144.7314  139.3551  164.3026 C.3     1  UNL1        0.0196
     20 C         142.4952  138.8835  166.2462 C.3     1  UNL1        0.0196
     21 C         144.4671  138.1353  166.0179 C.3     1  UNL1        0.0196
     22 C         140.2551  143.0530  165.9274 C.3     1  UNL1        0.1212
     23 C         139.6666  141.7297  166.3177 C.ar    1  UNL1       -0.0023
     24 C         138.7524  141.0074  165.3729 C.ar    1  UNL1       -0.0026
     25 C         138.1639  139.6840  165.7632 C.ar    1  UNL1       -0.0003
     26 C         138.4895  139.0829  167.0983 C.ar    1  UNL1       -0.0000
     27 C         139.4036  139.8051  168.0432 C.ar    1  UNL1       -0.0003
     28 C         139.9922  141.1285  167.6529 C.ar    1  UNL1       -0.0024
     29 C         140.9063  141.8507  168.5977 C.ar    1  UNL1       -0.0003
     30 C         140.3914  143.0068  169.4029 C.ar    1  UNL1       -0.0000
     31 C         141.3055  143.7290  170.3477 C.ar    1  UNL1       -0.0000
     32 C         142.7346  143.2951  170.4874 C.ar    1  UNL1       -0.0000
     33 C         143.2495  142.1390  169.6823 C.ar    1  UNL1       -0.0000
     34 C         142.3353  141.4168  168.7374 C.ar    1  UNL1       -0.0000
@<TRIPOS>BOND
     1     1     2    1
     2     2     3   ar
     3     3     4    1
     4     3     5   ar
     5     5     6   ar
     6     6     7   ar
     7     7     8   ar
     8     8     9    1
     9     9    10    2
    10     9    11   am
    11    11    22    1
    12    22    23    1
    13    23    24   ar
    14    24    25   ar
    15    25    26   ar
    16    26    27   ar
    17    27    28   ar
    18    28    29    1
    19    29    30   ar
    20    30    31   ar
    21    31    32   ar
    22    32    33   ar
    23    33    34   ar
    24    11    12    1
    25    12    14    1
    26    14    15    2
    27    14    16   am
    28    16    18    1
    29    18    19    1
    30    18    20    1
    31    18    21    1
    32     8     2   ar
    33    28    23   ar
    34    34    29   ar
    35    12     7    1
    36     4    13    1
    37    16    17    1
@<TRIPOS>MOLECULE
*****
 34 37 0 0 0
SMALL
GASTEIGER

@<TRIPOS>ATOM
      1 C         142.5781  142.4234  169.9141 C.3     1  UNL1        0.0343
      2 C         141.3984  141.6297  169.4365 C.ar    1  UNL1        0.0160
      3 C         140.3799  141.1342  170.4199 C.ar    1  UNL1        0.1298
      4 O         140.5412  141.4325  171.8812 O.3     1  UNL1       -0.5058
      5 C         139.2002  140.3405  169.9423 C.ar    1  UNL1        0.0360
      6 C         139.0388  140.0423  168.4811 C.ar    1  UNL1        0.0010
      7 C         140.0572  140.5377  167.4977 C.ar    1  UNL1        0.0088
      8 C         141.2370  141.3314  167.9753 C.ar    1  UNL1        0.0506
      9 C         142.0722  141.6850  166.7805 C.2     1  UNL1        0.2493
     10 O         143.3472  142.4750  166.7987 O.2     1  UNL1       -0.2699
     11 N         141.4086  141.1098  165.5645 N.am    1  UNL1       -0.2620
     12 C         140.1633  140.4008  166.0077 C.3     1  UNL1        0.1753
     13 H         141.2782  141.9283  172.1796 H       1  UNL1        0.2922
     14 C         139.1942  139.6811  165.1173 C.2     1  UNL1        0.2448
     15 O         137.9338  139.1051  165.6912 O.2     1  UNL1       -0.2729
     16 N         139.4855  139.5374  163.6528 N.am    1  UNL1       -0.3059
     17 H         140.3128  139.9155  163.2761 H       1  UNL1        0.1494
     18 C         138.5164  138.8178  162.7624 C.3     1  UNL1        0.0569
     19 C         137.8128  140.1125  162.4818 C.3     1  UNL1        0.0196
     20 C         139.2200  137.5231  163.0430 C.3     1  UNL1        0.0196
     21 C         137.5473  138.0981  161.8720 C.3     1  UNL1        0.0196
     22 C         141.9035  141.2237  164.1530 C.3     1  UNL1        0.1212
     23 C         142.6535  142.4475  163.7177 C.ar    1  UNL1       -0.0023
     24 C         144.1270  142.3678  163.4479 C.ar    1  UNL1       -0.0026
     25 C         144.8770  143.5916  163.0125 C.ar    1  UNL1       -0.0003
     26 C         144.1537  144.8952  162.8469 C.ar    1  UNL1       -0.0000
     27 C         142.6804  144.9750  163.1167 C.ar    1  UNL1       -0.0003
     28 C         141.9302  143.7511  163.5521 C.ar    1  UNL1       -0.0024
     29 C         140.4569  143.8309  163.8218 C.ar    1  UNL1       -0.0003
     30 C         139.9638  144.2493  165.1752 C.ar    1  UNL1       -0.0000
     31 C         138.4904  144.3291  165.4450 C.ar    1  UNL1       -0.0000
     32 C         137.5101  143.9904  164.3613 C.ar    1  UNL1       -0.0000
     33 C         138.0032  143.5720  163.0079 C.ar    1  UNL1       -0.0000
     34 C         139.4766  143.4922  162.7382 C.ar    1  UNL1       -0.0000
@<TRIPOS>BOND
     1     1     2    1
     2     2     3   ar
     3     3     4    1
     4     3     5   ar
     5     5     6   ar
     6     6     7   ar
     7     7     8   ar
     8     8     9    1
     9     9    10    2
    10     9    11   am
    11    11    22    1
    12    22    23    1
    13    23    24   ar
    14    24    25   ar
    15    25    26   ar
    16    26    27   ar
    17    27    28   ar
    18    28    29    1
    19    29    30   ar
    20    30    31   ar
    21    31    32   ar
    22    32    33   ar
    23    33    34   ar
    24    11    12    1
    25    12    14    1
    26    14    15    2
    27    14    16   am
    28    16    18    1
    29    18    19    1
    30    18    20    1
    31    18    21    1
    32     8     2   ar
    33    28    23   ar
    34    34    29   ar
    35    12     7    1
    36     4    13    1
    37    16    17    1
@<TRIPOS>MOLECULE
*****
 34 37 0 0 0
SMALL
GASTEIGER

@<TRIPOS>ATOM
      1 C         143.8940  142.3105  169.9400 C.3     1  UNL1        0.0343
      2 C         142.7196  141.4839  169.5070 C.ar    1  UNL1        0.0160
      3 C         141.9740  140.6561  170.5114 C.ar    1  UNL1        0.1298
      4 O         142.4027  140.6550  171.9488 O.3     1  UNL1       -0.5058
      5 C         140.7996  139.8295  170.0783 C.ar    1  UNL1        0.0360
      6 C         140.3709  139.8306  168.6410 C.ar    1  UNL1        0.0010
      7 C         141.1165  140.6583  167.6366 C.ar    1  UNL1        0.0088
      8 C         142.2909  141.4850  168.0696 C.ar    1  UNL1        0.0506
      9 C         142.8278  142.1955  166.8626 C.2     1  UNL1        0.2493
     10 O         144.0012  143.1296  166.8388 O.2     1  UNL1       -0.2699
     11 N         141.9853  141.8081  165.6836 N.am    1  UNL1       -0.2620
     12 C         140.9276  140.8580  166.1620 C.3     1  UNL1        0.1753
     13 H         143.1363  141.1713  172.2193 H       1  UNL1        0.2922
     14 C         139.8673  140.2197  165.3145 C.2     1  UNL1        0.2448
     15 O         138.4571  140.1316  165.8178 O.2     1  UNL1       -0.2729
     16 N         140.2172  139.6694  163.9636 N.am    1  UNL1       -0.3059
     17 H         141.1428  139.7272  163.6332 H       1  UNL1        0.1494
     18 C         139.1568  139.0311  163.1162 C.3     1  UNL1        0.0569
     19 C         138.7540  140.3819  162.6030 C.3     1  UNL1        0.0196
     20 C         139.5597  137.6805  163.6294 C.3     1  UNL1        0.0196
     21 C         138.0965  138.3929  162.2687 C.3     1  UNL1        0.0196
     22 C         142.1682  142.2867  164.2738 C.3     1  UNL1        0.1212
     23 C         141.1707  143.2275  163.6657 C.ar    1  UNL1       -0.0023
     24 C         140.2351  144.0009  164.5470 C.ar    1  UNL1       -0.0026
     25 C         139.2376  144.9417  163.9389 C.ar    1  UNL1       -0.0003
     26 C         139.1757  145.1092  162.4496 C.ar    1  UNL1       -0.0000
     27 C         140.1112  144.3359  161.5683 C.ar    1  UNL1       -0.0003
     28 C         141.1088  143.3950  162.1764 C.ar    1  UNL1       -0.0024
     29 C         142.0444  142.6217  161.2952 C.ar    1  UNL1       -0.0003
     30 C         141.6313  141.2857  160.7524 C.ar    1  UNL1       -0.0000
     31 C         142.5669  140.5124  159.8711 C.ar    1  UNL1       -0.0000
     32 C         143.9156  141.0750  159.5326 C.ar    1  UNL1       -0.0000
     33 C         144.3286  142.4110  160.0754 C.ar    1  UNL1       -0.0000
     34 C         143.3930  143.1843  160.9567 C.ar    1  UNL1       -0.0000
@<TRIPOS>BOND
     1     1     2    1
     2     2     3   ar
     3     3     4    1
     4     3     5   ar
     5     5     6   ar
     6     6     7   ar
     7     7     8   ar
     8     8     9    1
     9     9    10    2
    10     9    11   am
    11    11    22    1
    12    22    23    1
    13    23    24   ar
    14    24    25   ar
    15    25    26   ar
    16    26    27   ar
    17    27    28   ar
    18    28    29    1
    19    29    30   ar
    20    30    31   ar
    21    31    32   ar
    22    32    33   ar
    23    33    34   ar
    24    11    12    1
    25    12    14    1
    26    14    15    2
    27    14    16   am
    28    16    18    1
    29    18    19    1
    30    18    20    1
    31    18    21    1
    32     8     2   ar
    33    28    23   ar
    34    34    29   ar
    35    12     7    1
    36     4    13    1
    37    16    17    1
@<TRIPOS>MOLECULE
*****
 34 37 0 0 0
SMALL
GASTEIGER

@<TRIPOS>ATOM
      1 C         139.9588  141.2054  169.8411 C.3     1  UNL1        0.0343
      2 C         139.3341  140.3440  168.7839 C.ar    1  UNL1        0.0160
      3 C         138.1291  139.5122  169.1096 C.ar    1  UNL1        0.1298
      4 O         137.5488  139.5418  170.4925 O.3     1  UNL1       -0.5058
      5 C         137.5043  138.6508  168.0524 C.ar    1  UNL1        0.0360
      6 C         138.0845  138.6212  166.6695 C.ar    1  UNL1        0.0010
      7 C         139.2895  139.4530  166.3438 C.ar    1  UNL1        0.0088
      8 C         139.9143  140.3144  167.4010 C.ar    1  UNL1        0.0506
      9 C         141.0876  141.0210  166.7895 C.2     1  UNL1        0.2493
     10 O         142.0003  141.9833  167.4901 O.2     1  UNL1       -0.2699
     11 N         141.1880  140.5964  165.3544 N.am    1  UNL1       -0.2620
     12 C         140.0767  139.6273  165.0789 C.3     1  UNL1        0.1753
     13 H         137.9391  140.0799  171.1530 H       1  UNL1        0.2922
     14 C         139.8010  138.9511  163.7687 C.2     1  UNL1        0.2448
     15 O         139.7293  137.4546  163.6974 O.2     1  UNL1       -0.2729
     16 N         139.5971  139.7716  162.5295 N.am    1  UNL1       -0.3059
     17 H         139.6442  140.7539  162.5763 H       1  UNL1        0.1494
     18 C         139.3214  139.0955  161.2193 C.3     1  UNL1        0.0569
     19 C         137.8527  139.1034  161.5243 C.3     1  UNL1        0.0196
     20 C         140.7900  139.0877  160.9143 C.3     1  UNL1        0.0196
     21 C         139.0456  138.4194  159.9091 C.3     1  UNL1        0.0196
     22 C         142.2187  141.0595  164.3679 C.3     1  UNL1        0.1212
     23 C         142.7598  142.4561  164.4485 C.ar    1  UNL1       -0.0023
     24 C         144.1197  142.7011  165.0324 C.ar    1  UNL1       -0.0026
     25 C         144.6607  144.0978  165.1131 C.ar    1  UNL1       -0.0003
     26 C         143.8421  145.2495  164.6098 C.ar    1  UNL1       -0.0000
     27 C         142.4823  145.0046  164.0259 C.ar    1  UNL1       -0.0003
     28 C         141.9411  143.6078  163.9452 C.ar    1  UNL1       -0.0024
     29 C         140.5814  143.3629  163.3613 C.ar    1  UNL1       -0.0003
     30 C         140.4179  143.2141  161.8777 C.ar    1  UNL1       -0.0000
     31 C         139.0582  142.9691  161.2938 C.ar    1  UNL1       -0.0000
     32 C         137.8617  142.8730  162.1935 C.ar    1  UNL1       -0.0000
     33 C         138.0252  143.0219  163.6771 C.ar    1  UNL1       -0.0000
     34 C         139.3851  143.2668  164.2610 C.ar    1  UNL1       -0.0000
@<TRIPOS>BOND
     1     1     2    1
     2     2     3   ar
     3     3     4    1
     4     3     5   ar
     5     5     6   ar
     6     6     7   ar
     7     7     8   ar
     8     8     9    1
     9     9    10    2
    10     9    11   am
    11    11    22    1
    12    22    23    1
    13    23    24   ar
    14    24    25   ar
    15    25    26   ar
    16    26    27   ar
    17    27    28   ar
    18    28    29    1
    19    29    30   ar
    20    30    31   ar
    21    31    32   ar
    22    32    33   ar
    23    33    34   ar
    24    11    12    1
    25    12    14    1
    26    14    15    2
    27    14    16   am
    28    16    18    1
    29    18    19    1
    30    18    20    1
    31    18    21    1
    32     8     2   ar
    33    28    23   ar
    34    34    29   ar
    35    12     7    1
    36     4    13    1
    37    16    17    1
@<TRIPOS>MOLECULE
*****
 34 37 0 0 0
SMALL
GASTEIGER

@<TRIPOS>ATOM
      1 C         138.1667  139.5315  168.3926 C.3     1  UNL1        0.0343
      2 C         138.4292  139.0230  167.0061 C.ar    1  UNL1        0.0160
      3 C         137.9271  137.6704  166.5958 C.ar    1  UNL1        0.1298
      4 O         137.1624  136.8264  167.5720 O.3     1  UNL1       -0.5058
      5 C         138.1895  137.1619  165.2092 C.ar    1  UNL1        0.0360
      6 C         138.9542  138.0058  164.2330 C.ar    1  UNL1        0.0010
      7 C         139.4563  139.3584  164.6434 C.ar    1  UNL1        0.0088
      8 C         139.1938  139.8670  166.0299 C.ar    1  UNL1        0.0506
      9 C         139.8083  141.2303  166.1476 C.2     1  UNL1        0.2493
     10 O         139.7847  142.1058  167.3654 O.2     1  UNL1       -0.2699
     11 N         140.4505  141.5643  164.8339 N.am    1  UNL1       -0.2620
     12 C         140.2330  140.4074  163.9042 C.3     1  UNL1        0.1753
     13 H         136.9984  137.1440  168.4381 H       1  UNL1        0.2922
     14 C         140.7086  140.3156  162.4846 C.2     1  UNL1        0.2448
     15 O         140.1931  141.2790  161.4570 O.2     1  UNL1       -0.2729
     16 N         141.7000  139.2602  162.0925 N.am    1  UNL1       -0.3059
     17 H         142.0384  138.6279  162.7669 H       1  UNL1        0.1494
     18 C         142.1756  139.1684  160.6728 C.3     1  UNL1        0.0569
     19 C         140.9516  138.3790  160.3139 C.3     1  UNL1        0.0196
     20 C         143.3995  139.9579  161.0318 C.3     1  UNL1        0.0196
     21 C         142.6512  139.0766  159.2533 C.3     1  UNL1        0.0196
     22 C         141.1819  142.8325  164.5072 C.3     1  UNL1        0.1212
     23 C         142.5747  142.7737  163.9535 C.ar    1  UNL1       -0.0023
     24 C         142.8931  143.4465  162.6511 C.ar    1  UNL1       -0.0026
     25 C         144.2859  143.3877  162.0974 C.ar    1  UNL1       -0.0003
     26 C         145.3604  142.6561  162.8460 C.ar    1  UNL1       -0.0000
     27 C         145.0420  141.9834  164.1483 C.ar    1  UNL1       -0.0003
     28 C         143.6492  142.0422  164.7021 C.ar    1  UNL1       -0.0024
     29 C         143.3308  141.3694  166.0044 C.ar    1  UNL1       -0.0003
     30 C         143.1142  139.8858  166.0489 C.ar    1  UNL1       -0.0000
     31 C         142.7959  139.2130  167.3512 C.ar    1  UNL1       -0.0000
     32 C         142.6941  140.0239  168.6091 C.ar    1  UNL1       -0.0000
     33 C         142.9108  141.5075  168.5646 C.ar    1  UNL1       -0.0000
     34 C         143.2291  142.1803  167.2622 C.ar    1  UNL1       -0.0000
@<TRIPOS>BOND
     1     1     2    1
     2     2     3   ar
     3     3     4    1
     4     3     5   ar
     5     5     6   ar
     6     6     7   ar
     7     7     8   ar
     8     8     9    1
     9     9    10    2
    10     9    11   am
    11    11    22    1
    12    22    23    1
    13    23    24   ar
    14    24    25   ar
    15    25    26   ar
    16    26    27   ar
    17    27    28   ar
    18    28    29    1
    19    29    30   ar
    20    30    31   ar
    21    31    32   ar
    22    32    33   ar
    23    33    34   ar
    24    11    12    1
    25    12    14    1
    26    14    15    2
    27    14    16   am
    28    16    18    1
    29    18    19    1
    30    18    20    1
    31    18    21    1
    32     8     2   ar
    33    28    23   ar
    34    34    29   ar
    35    12     7    1
    36     4    13    1
    37    16    17    1
@<TRIPOS>MOLECULE
*****
 34 37 0 0 0
SMALL
GASTEIGER

@<TRIPOS>ATOM
      1 C         139.3993  139.5690  168.1265 C.3     1  UNL1        0.0343
      2 C         139.6331  140.8144  167.3239 C.ar    1  UNL1        0.0160
      3 C         140.2712  142.0110  167.9649 C.ar    1  UNL1        0.1298
      4 O         140.6756  141.9622  169.4086 O.3     1  UNL1       -0.5058
      5 C         140.5050  143.2564  167.1622 C.ar    1  UNL1        0.0360
      6 C         140.1007  143.3053  165.7186 C.ar    1  UNL1        0.0010
      7 C         139.4625  142.1087  165.0776 C.ar    1  UNL1        0.0088
      8 C         139.2287  140.8633  165.8802 C.ar    1  UNL1        0.0506
      9 C         138.5840  139.8482  164.9836 C.2     1  UNL1        0.2493
     10 O         138.1757  138.4590  165.3750 O.2     1  UNL1       -0.2699
     11 N         138.4194  140.4663  163.6268 N.am    1  UNL1       -0.2620
     12 C         138.9623  141.8634  163.6849 C.3     1  UNL1        0.1753
     13 H         140.5296  141.1842  169.9099 H       1  UNL1        0.2922
     14 C         138.9987  142.8431  162.5497 C.2     1  UNL1        0.2448
     15 O         137.7246  143.2572  161.8752 O.2     1  UNL1       -0.2729
     16 N         140.3094  143.4088  162.0889 N.am    1  UNL1       -0.3059
     17 H         141.1457  143.1370  162.5315 H       1  UNL1        0.1494
     18 C         140.3458  144.3886  160.9536 C.3     1  UNL1        0.0569
     19 C         140.2040  145.5213  161.9268 C.3     1  UNL1        0.0196
     20 C         140.4876  143.2558  159.9806 C.3     1  UNL1        0.0196
     21 C         140.3822  145.3683  159.8185 C.3     1  UNL1        0.0196
     22 C         137.8175  139.8037  162.4232 C.3     1  UNL1        0.1212
     23 C         138.5540  139.8104  161.1165 C.ar    1  UNL1       -0.0023
     24 C         137.8585  140.2604  159.8659 C.ar    1  UNL1       -0.0026
     25 C         138.5950  140.2671  158.5592 C.ar    1  UNL1       -0.0003
     26 C         140.0269  139.8239  158.5030 C.ar    1  UNL1       -0.0000
     27 C         140.7223  139.3739  159.7535 C.ar    1  UNL1       -0.0003
     28 C         139.9859  139.3671  161.0603 C.ar    1  UNL1       -0.0024
     29 C         140.6813  138.9172  162.3108 C.ar    1  UNL1       -0.0003
     30 C         140.4041  137.5550  162.8745 C.ar    1  UNL1       -0.0000
     31 C         141.0995  137.1050  164.1250 C.ar    1  UNL1       -0.0000
     32 C         142.0723  138.0172  164.8119 C.ar    1  UNL1       -0.0000
     33 C         142.3495  139.3793  164.2482 C.ar    1  UNL1       -0.0000
     34 C         141.6540  139.8293  162.9976 C.ar    1  UNL1       -0.0000
@<TRIPOS>BOND
     1     1     2    1
     2     2     3   ar
     3     3     4    1
     4     3     5   ar
     5     5     6   ar
     6     6     7   ar
     7     7     8   ar
     8     8     9    1
     9     9    10    2
    10     9    11   am
    11    11    22    1
    12    22    23    1
    13    23    24   ar
    14    24    25   ar
    15    25    26   ar
    16    26    27   ar
    17    27    28   ar
    18    28    29    1
    19    29    30   ar
    20    30    31   ar
    21    31    32   ar
    22    32    33   ar
    23    33    34   ar
    24    11    12    1
    25    12    14    1
    26    14    15    2
    27    14    16   am
    28    16    18    1
    29    18    19    1
    30    18    20    1
    31    18    21    1
    32     8     2   ar
    33    28    23   ar
    34    34    29   ar
    35    12     7    1
    36     4    13    1
    37    16    17    1
