@<TRIPOS>MOLECULE
*****
 28 30 0 0 0
SMALL
GASTEIGER

@<TRIPOS>ATOM
      1 O         140.7327  136.8950  162.8912 O.2     1  UNL1       -0.2698
      2 C         140.3924  138.3349  163.1377 C.2     1  UNL1        0.2495
      3 N         140.4333  139.3195  162.0069 N.am    1  UNL1       -0.2804
      4 H         140.2099  140.2646  162.1687 H       1  UNL1        0.1552
      5 C         140.8147  138.8642  160.6294 C.ar    1  UNL1        0.0507
      6 C         139.7683  138.7500  159.5607 C.ar    1  UNL1        0.0178
      7 C         140.1497  138.2948  158.1833 C.ar    1  UNL1        0.0385
      8 C         141.5774  137.9537  157.8746 C.ar    1  UNL1        0.1469
      9 C         142.6238  138.0679  158.9433 C.ar    1  UNL1        0.0385
     10 C         142.2424  138.5232  160.3207 C.ar    1  UNL1        0.0178
     11 O         141.9588  137.4984  156.4972 O.3     1  UNL1       -0.4045
     12 C         143.1192  136.5666  156.3097 C.3     1  UNL1        0.5753
     13 F         144.2797  135.6348  156.1222 F       1  UNL1       -0.1328
     14 F         142.2694  135.4169  156.7633 F       1  UNL1       -0.1328
     15 F         143.9690  137.7163  155.8560 F       1  UNL1       -0.1328
     16 C         140.0110  138.7903  164.5152 C.ar    1  UNL1        0.0534
     17 C         138.6628  138.4431  165.0734 C.ar    1  UNL1        0.0045
     18 C         138.2815  138.8984  166.4508 C.ar    1  UNL1       -0.0001
     19 C         139.2485  139.7009  167.2700 C.ar    1  UNL1       -0.0029
     20 C         140.5967  140.0481  166.7117 C.ar    1  UNL1       -0.0060
     21 C         140.9780  139.5928  165.3343 C.ar    1  UNL1        0.0016
     22 C         141.5636  140.8506  167.5309 C.3     1  UNL1        0.0993
     23 N         141.1774  141.3172  168.9031 N.3     1  UNL1       -0.2646
     24 C         141.5177  140.4829  170.1024 C.3     1  UNL1        0.1049
     25 C         141.1315  140.9495  171.4746 C.3     1  UNL1        0.1595
     26 O         140.4048  142.2503  171.6476 O.3     1  UNL1       -0.3508
     27 C         140.0645  143.0845  170.4484 C.3     1  UNL1        0.1595
     28 C         140.4507  142.6180  169.0761 C.3     1  UNL1        0.1049
@<TRIPOS>BOND
     1     1     2    2
     2     2     3   am
     3     3     5    1
     4     5     6   ar
     5     6     7   ar
     6     7     8   ar
     7     8    11    1
     8    11    12    1
     9    12    13    1
    10    12    14    1
    11    12    15    1
    12     8     9   ar
    13     9    10   ar
    14     2    16    1
    15    16    17   ar
    16    17    18   ar
    17    18    19   ar
    18    19    20   ar
    19    20    22    1
    20    22    23    1
    21    23    24    1
    22    24    25    1
    23    25    26    1
    24    26    27    1
    25    27    28    1
    26    20    21   ar
    27    10     5   ar
    28    21    16   ar
    29    28    23    1
    30     3     4    1
@<TRIPOS>MOLECULE
*****
 28 30 0 0 0
SMALL
GASTEIGER

@<TRIPOS>ATOM
      1 O         138.4388  141.7595  162.3318 O.2     1  UNL1       -0.2698
      2 C         139.5008  141.8200  163.3894 C.2     1  UNL1        0.2495
      3 N         140.7109  142.6833  163.1886 N.am    1  UNL1       -0.2804
      4 H         141.4079  142.7230  163.8827 H       1  UNL1        0.1552
      5 C         140.8590  143.4862  161.9302 C.ar    1  UNL1        0.0507
      6 C         140.1701  144.8123  161.8012 C.ar    1  UNL1        0.0178
      7 C         140.3182  145.6152  160.5428 C.ar    1  UNL1        0.0385
      8 C         141.1553  145.0918  159.4135 C.ar    1  UNL1        0.1469
      9 C         141.8443  143.7657  159.5425 C.ar    1  UNL1        0.0385
     10 C         141.6961  142.9629  160.8008 C.ar    1  UNL1        0.0178
     11 O         141.3035  145.8947  158.1551 O.3     1  UNL1       -0.4045
     12 C         140.2655  145.7971  157.0766 C.3     1  UNL1        0.5753
     13 F         139.2276  145.6995  155.9981 F       1  UNL1       -0.1328
     14 F         140.9472  144.5775  156.5309 F       1  UNL1       -0.1328
     15 F         139.5839  147.0167  157.6223 F       1  UNL1       -0.1328
     16 C         139.3527  141.0171  164.6478 C.ar    1  UNL1        0.0534
     17 C         138.1417  140.1552  164.8493 C.ar    1  UNL1        0.0045
     18 C         137.9937  139.3524  166.1076 C.ar    1  UNL1       -0.0001
     19 C         139.0565  139.4115  167.1645 C.ar    1  UNL1       -0.0029
     20 C         140.2674  140.2734  166.9629 C.ar    1  UNL1       -0.0060
     21 C         140.4155  141.0763  165.7046 C.ar    1  UNL1        0.0016
     22 C         141.3302  140.3326  168.0198 C.3     1  UNL1        0.0993
     23 N         141.4782  141.5617  168.8667 N.3     1  UNL1       -0.2646
     24 C         140.3346  142.5233  168.9993 C.3     1  UNL1        0.1049
     25 C         140.4826  143.7525  169.8462 C.3     1  UNL1        0.1595
     26 O         141.7742  144.0200  170.5605 O.3     1  UNL1       -0.3508
     27 C         142.9177  143.0585  170.4280 C.3     1  UNL1        0.1595
     28 C         142.7698  141.8293  169.5810 C.3     1  UNL1        0.1049
@<TRIPOS>BOND
     1     1     2    2
     2     2     3   am
     3     3     5    1
     4     5     6   ar
     5     6     7   ar
     6     7     8   ar
     7     8    11    1
     8    11    12    1
     9    12    13    1
    10    12    14    1
    11    12    15    1
    12     8     9   ar
    13     9    10   ar
    14     2    16    1
    15    16    17   ar
    16    17    18   ar
    17    18    19   ar
    18    19    20   ar
    19    20    22    1
    20    22    23    1
    21    23    24    1
    22    24    25    1
    23    25    26    1
    24    26    27    1
    25    27    28    1
    26    20    21   ar
    27    10     5   ar
    28    21    16   ar
    29    28    23    1
    30     3     4    1
@<TRIPOS>MOLECULE
*****
 28 30 0 0 0
SMALL
GASTEIGER

@<TRIPOS>ATOM
      1 O         139.5429  141.4263  159.4491 O.2     1  UNL1       -0.2698
      2 C         138.2426  140.9180  158.9007 C.2     1  UNL1        0.2495
      3 N         137.3590  140.0511  159.7479 N.am    1  UNL1       -0.2804
      4 H         136.5056  139.7174  159.3880 H       1  UNL1        0.1552
      5 C         137.7757  139.6925  161.1436 C.ar    1  UNL1        0.0507
      6 C         138.3515  138.3373  161.4296 C.ar    1  UNL1        0.0178
      7 C         138.7682  137.9788  162.8252 C.ar    1  UNL1        0.0385
      8 C         138.6091  138.9756  163.9348 C.ar    1  UNL1        0.1469
      9 C         138.0334  140.3308  163.6488 C.ar    1  UNL1        0.0385
     10 C         137.6167  140.6893  162.2532 C.ar    1  UNL1        0.0178
     11 O         139.0259  138.6170  165.3305 O.3     1  UNL1       -0.4045
     12 C         138.0161  138.0768  166.2993 C.3     1  UNL1        0.5753
     13 F         137.0064  137.5366  167.2682 F       1  UNL1       -0.1328
     14 F         137.7274  139.4697  166.7751 F       1  UNL1       -0.1328
     15 F         138.3049  136.6839  165.8236 F       1  UNL1       -0.1328
     16 C         137.8258  141.2765  157.5050 C.ar    1  UNL1        0.0534
     17 C         138.5361  142.3734  156.7687 C.ar    1  UNL1        0.0045
     18 C         138.1193  142.7319  155.3731 C.ar    1  UNL1       -0.0001
     19 C         136.9924  141.9935  154.7138 C.ar    1  UNL1       -0.0029
     20 C         136.2821  140.8966  155.4502 C.ar    1  UNL1       -0.0060
     21 C         136.6988  140.5381  156.8458 C.ar    1  UNL1        0.0016
     22 C         135.1551  140.1581  154.7909 C.3     1  UNL1        0.0993
     23 N         133.7870  140.1737  155.4057 N.3     1  UNL1       -0.2646
     24 C         132.8470  141.3060  155.1151 C.3     1  UNL1        0.1049
     25 C         131.4789  141.3215  155.7300 C.3     1  UNL1        0.1595
     26 O         131.0508  140.2049  156.6354 O.3     1  UNL1       -0.3508
     27 C         131.9907  139.0727  156.9260 C.3     1  UNL1        0.1595
     28 C         133.3589  139.0571  156.3112 C.3     1  UNL1        0.1049
@<TRIPOS>BOND
     1     1     2    2
     2     2     3   am
     3     3     5    1
     4     5     6   ar
     5     6     7   ar
     6     7     8   ar
     7     8    11    1
     8    11    12    1
     9    12    13    1
    10    12    14    1
    11    12    15    1
    12     8     9   ar
    13     9    10   ar
    14     2    16    1
    15    16    17   ar
    16    17    18   ar
    17    18    19   ar
    18    19    20   ar
    19    20    22    1
    20    22    23    1
    21    23    24    1
    22    24    25    1
    23    25    26    1
    24    26    27    1
    25    27    28    1
    26    20    21   ar
    27    10     5   ar
    28    21    16   ar
    29    28    23    1
    30     3     4    1
@<TRIPOS>MOLECULE
*****
 28 30 0 0 0
SMALL
GASTEIGER

@<TRIPOS>ATOM
      1 O         137.9973  142.9522  163.6793 O.2     1  UNL1       -0.2698
      2 C         138.8492  142.0985  162.7875 C.2     1  UNL1        0.2495
      3 N         139.5630  140.9052  163.3500 N.am    1  UNL1       -0.2804
      4 H         140.1221  140.3449  162.7647 H       1  UNL1        0.1552
      5 C         139.4247  140.5655  164.8046 C.ar    1  UNL1        0.0507
      6 C         140.2414  141.2989  165.8269 C.ar    1  UNL1        0.0178
      7 C         140.1031  140.9591  167.2814 C.ar    1  UNL1        0.0385
      8 C         139.1483  139.8860  167.7134 C.ar    1  UNL1        0.1469
      9 C         138.3316  139.1526  166.6911 C.ar    1  UNL1        0.0385
     10 C         138.4699  139.4924  165.2367 C.ar    1  UNL1        0.0178
     11 O         139.0100  139.5463  169.1680 O.3     1  UNL1       -0.4045
     12 C         139.7637  140.3352  170.1973 C.3     1  UNL1        0.5753
     13 F         140.5173  141.1242  171.2267 F       1  UNL1       -0.1328
     14 F         138.6513  141.3405  170.2412 F       1  UNL1       -0.1328
     15 F         140.8760  139.3299  170.1534 F       1  UNL1       -0.1328
     16 C         138.9875  142.4383  161.3329 C.ar    1  UNL1        0.0534
     17 C         138.3669  141.5524  160.2936 C.ar    1  UNL1        0.0045
     18 C         138.5052  141.8922  158.8392 C.ar    1  UNL1       -0.0001
     19 C         139.2639  143.1177  158.4241 C.ar    1  UNL1       -0.0029
     20 C         139.8844  144.0036  159.4634 C.ar    1  UNL1       -0.0060
     21 C         139.7462  143.6638  160.9178 C.ar    1  UNL1        0.0016
     22 C         140.6432  145.2291  159.0483 C.3     1  UNL1        0.0993
     23 N         140.8846  145.5050  157.5938 N.3     1  UNL1       -0.2646
     24 C         142.0625  144.8886  156.8990 C.3     1  UNL1        0.1049
     25 C         142.3039  145.1644  155.4445 C.3     1  UNL1        0.1595
     26 O         141.3675  146.0566  154.6848 O.3     1  UNL1       -0.3508
     27 C         140.1897  146.6730  155.3795 C.3     1  UNL1        0.1595
     28 C         139.9482  146.3971  156.8341 C.3     1  UNL1        0.1049
@<TRIPOS>BOND
     1     1     2    2
     2     2     3   am
     3     3     5    1
     4     5     6   ar
     5     6     7   ar
     6     7     8   ar
     7     8    11    1
     8    11    12    1
     9    12    13    1
    10    12    14    1
    11    12    15    1
    12     8     9   ar
    13     9    10   ar
    14     2    16    1
    15    16    17   ar
    16    17    18   ar
    17    18    19   ar
    18    19    20   ar
    19    20    22    1
    20    22    23    1
    21    23    24    1
    22    24    25    1
    23    25    26    1
    24    26    27    1
    25    27    28    1
    26    20    21   ar
    27    10     5   ar
    28    21    16   ar
    29    28    23    1
    30     3     4    1
@<TRIPOS>MOLECULE
*****
 28 30 0 0 0
SMALL
GASTEIGER

@<TRIPOS>ATOM
      1 O         139.2685  146.1715  161.2425 O.2     1  UNL1       -0.2698
      2 C         139.8980  144.8623  161.6162 C.2     1  UNL1        0.2495
      3 N         140.4903  143.9845  160.5539 N.am    1  UNL1       -0.2804
      4 H         140.9034  143.1252  160.7992 H       1  UNL1        0.1552
      5 C         140.4531  144.4159  159.1177 C.ar    1  UNL1        0.0507
      6 C         139.5068  143.7544  158.1601 C.ar    1  UNL1        0.0178
      7 C         139.4696  144.1858  156.7240 C.ar    1  UNL1        0.0385
      8 C         140.3787  145.2788  156.2455 C.ar    1  UNL1        0.1469
      9 C         141.3250  145.9403  157.2030 C.ar    1  UNL1        0.0385
     10 C         141.3622  145.5089  158.6391 C.ar    1  UNL1        0.0178
     11 O         140.3415  145.7102  154.8093 O.3     1  UNL1       -0.4045
     12 C         139.9089  147.1021  154.4552 C.3     1  UNL1        0.5753
     13 F         139.4763  148.4941  154.1012 F       1  UNL1       -0.1328
     14 F         141.1424  147.2728  153.6190 F       1  UNL1       -0.1328
     15 F         138.6754  146.9314  155.2915 F       1  UNL1       -0.1328
     16 C         139.9352  144.4309  163.0524 C.ar    1  UNL1        0.0534
     17 C         138.8133  144.8020  163.9763 C.ar    1  UNL1        0.0045
     18 C         138.8506  144.3706  165.4124 C.ar    1  UNL1       -0.0001
     19 C         140.0097  143.5681  165.9246 C.ar    1  UNL1       -0.0029
     20 C         141.1316  143.1969  165.0008 C.ar    1  UNL1       -0.0060
     21 C         141.0943  143.6284  163.5646 C.ar    1  UNL1        0.0016
     22 C         142.2907  142.3944  165.5130 C.3     1  UNL1        0.0993
     23 N         143.2943  141.8290  164.5523 N.3     1  UNL1       -0.2646
     24 C         144.6389  142.4773  164.4043 C.3     1  UNL1        0.1049
     25 C         145.6425  141.9118  163.4436 C.3     1  UNL1        0.1595
     26 O         145.3016  140.6981  162.6308 O.3     1  UNL1       -0.3508
     27 C         143.9571  140.0498  162.7788 C.3     1  UNL1        0.1595
     28 C         142.9534  140.6152  163.7395 C.3     1  UNL1        0.1049
@<TRIPOS>BOND
     1     1     2    2
     2     2     3   am
     3     3     5    1
     4     5     6   ar
     5     6     7   ar
     6     7     8   ar
     7     8    11    1
     8    11    12    1
     9    12    13    1
    10    12    14    1
    11    12    15    1
    12     8     9   ar
    13     9    10   ar
    14     2    16    1
    15    16    17   ar
    16    17    18   ar
    17    18    19   ar
    18    19    20   ar
    19    20    22    1
    20    22    23    1
    21    23    24    1
    22    24    25    1
    23    25    26    1
    24    26    27    1
    25    27    28    1
    26    20    21   ar
    27    10     5   ar
    28    21    16   ar
    29    28    23    1
    30     3     4    1
@<TRIPOS>MOLECULE
*****
 28 30 0 0 0
SMALL
GASTEIGER

@<TRIPOS>ATOM
      1 O         143.4707  143.0900  163.4232 O.2     1  UNL1       -0.2698
      2 C         142.4779  141.9793  163.5978 C.2     1  UNL1        0.2495
      3 N         141.2966  141.8779  162.6790 N.am    1  UNL1       -0.2804
      4 H         140.6450  141.1489  162.7936 H       1  UNL1        0.1552
      5 C         141.1083  142.8872  161.5854 C.ar    1  UNL1        0.0507
      6 C         140.4956  144.2212  161.8934 C.ar    1  UNL1        0.0178
      7 C         140.3072  145.2305  160.7998 C.ar    1  UNL1        0.0385
      8 C         140.7316  144.9057  159.3983 C.ar    1  UNL1        0.1469
      9 C         141.3443  143.5717  159.0902 C.ar    1  UNL1        0.0385
     10 C         141.5326  142.5624  160.1838 C.ar    1  UNL1        0.0178
     11 O         140.5432  145.9150  158.3047 O.3     1  UNL1       -0.4045
     12 C         141.2987  145.7749  157.0165 C.3     1  UNL1        0.5753
     13 F         142.0542  145.6348  155.7281 F       1  UNL1       -0.1328
     14 F         140.1028  145.1253  156.3858 F       1  UNL1       -0.1328
     15 F         142.4946  146.4245  157.6472 F       1  UNL1       -0.1328
     16 C         142.6662  140.9700  164.6914 C.ar    1  UNL1        0.0534
     17 C         142.9072  139.5296  164.3493 C.ar    1  UNL1        0.0045
     18 C         143.0955  138.5203  165.4428 C.ar    1  UNL1       -0.0001
     19 C         143.0429  138.9515  166.8785 C.ar    1  UNL1       -0.0029
     20 C         142.8020  140.3919  167.2207 C.ar    1  UNL1       -0.0060
     21 C         142.6137  141.4012  166.1272 C.ar    1  UNL1        0.0016
     22 C         142.7494  140.8231  168.6565 C.3     1  UNL1        0.0993
     23 N         141.4291  141.1252  169.3010 N.3     1  UNL1       -0.2646
     24 C         140.3480  140.0854  169.3192 C.3     1  UNL1        0.1049
     25 C         139.0277  140.3875  169.9637 C.3     1  UNL1        0.1595
     26 O         138.7884  141.7294  170.5900 O.3     1  UNL1       -0.3508
     27 C         139.8694  142.7691  170.5718 C.3     1  UNL1        0.1595
     28 C         141.1898  142.4670  169.9272 C.3     1  UNL1        0.1049
@<TRIPOS>BOND
     1     1     2    2
     2     2     3   am
     3     3     5    1
     4     5     6   ar
     5     6     7   ar
     6     7     8   ar
     7     8    11    1
     8    11    12    1
     9    12    13    1
    10    12    14    1
    11    12    15    1
    12     8     9   ar
    13     9    10   ar
    14     2    16    1
    15    16    17   ar
    16    17    18   ar
    17    18    19   ar
    18    19    20   ar
    19    20    22    1
    20    22    23    1
    21    23    24    1
    22    24    25    1
    23    25    26    1
    24    26    27    1
    25    27    28    1
    26    20    21   ar
    27    10     5   ar
    28    21    16   ar
    29    28    23    1
    30     3     4    1
@<TRIPOS>MOLECULE
*****
 28 30 0 0 0
SMALL
GASTEIGER

@<TRIPOS>ATOM
      1 O         139.5141  144.0355  159.4984 O.2     1  UNL1       -0.2698
      2 C         140.7266  144.7968  159.0508 C.2     1  UNL1        0.2495
      3 N         141.8331  145.0834  160.0221 N.am    1  UNL1       -0.2804
      4 H         142.6288  145.5831  159.7283 H       1  UNL1        0.1552
      5 C         141.7272  144.6087  161.4411 C.ar    1  UNL1        0.0507
      6 C         142.4200  143.3472  161.8636 C.ar    1  UNL1        0.0178
      7 C         142.3140  142.8726  163.2826 C.ar    1  UNL1        0.0385
      8 C         141.5153  143.6595  164.2790 C.ar    1  UNL1        0.1469
      9 C         140.8225  144.9210  163.8565 C.ar    1  UNL1        0.0385
     10 C         140.9284  145.3956  162.4375 C.ar    1  UNL1        0.0178
     11 O         141.4094  143.1848  165.6980 O.3     1  UNL1       -0.4045
     12 C         142.0958  141.9192  166.1187 C.3     1  UNL1        0.5753
     13 F         142.7822  140.6535  166.5394 F       1  UNL1       -0.1328
     14 F         140.8695  141.1342  165.7583 F       1  UNL1       -0.1328
     15 F         143.3221  142.7041  166.4791 F       1  UNL1       -0.1328
     16 C         140.8325  145.2715  157.6318 C.ar    1  UNL1        0.0534
     17 C         141.9460  144.7773  156.7567 C.ar    1  UNL1        0.0045
     18 C         142.0519  145.2520  155.3378 C.ar    1  UNL1       -0.0001
     19 C         141.0442  146.2209  154.7939 C.ar    1  UNL1       -0.0029
     20 C         139.9307  146.7151  155.6690 C.ar    1  UNL1       -0.0060
     21 C         139.8248  146.2404  157.0879 C.ar    1  UNL1        0.0016
     22 C         138.9231  147.6841  155.1251 C.3     1  UNL1        0.0993
     23 N         139.2167  149.1550  155.1330 N.3     1  UNL1       -0.2646
     24 C         138.5244  150.0527  156.1153 C.3     1  UNL1        0.1049
     25 C         138.8181  151.5237  156.1232 C.3     1  UNL1        0.1595
     26 O         139.8040  152.0969  155.1489 O.3     1  UNL1       -0.3508
     27 C         140.4963  151.1993  154.1666 C.3     1  UNL1        0.1595
     28 C         140.2026  149.7282  154.1587 C.3     1  UNL1        0.1049
@<TRIPOS>BOND
     1     1     2    2
     2     2     3   am
     3     3     5    1
     4     5     6   ar
     5     6     7   ar
     6     7     8   ar
     7     8    11    1
     8    11    12    1
     9    12    13    1
    10    12    14    1
    11    12    15    1
    12     8     9   ar
    13     9    10   ar
    14     2    16    1
    15    16    17   ar
    16    17    18   ar
    17    18    19   ar
    18    19    20   ar
    19    20    22    1
    20    22    23    1
    21    23    24    1
    22    24    25    1
    23    25    26    1
    24    26    27    1
    25    27    28    1
    26    20    21   ar
    27    10     5   ar
    28    21    16   ar
    29    28    23    1
    30     3     4    1
@<TRIPOS>MOLECULE
*****
 28 30 0 0 0
SMALL
GASTEIGER

@<TRIPOS>ATOM
      1 O         139.1769  145.8773  161.3389 O.2     1  UNL1       -0.2698
      2 C         139.7856  144.5350  161.6174 C.2     1  UNL1        0.2495
      3 N         140.3485  143.7186  160.4919 N.am    1  UNL1       -0.2804
      4 H         140.7480  142.8376  160.6747 H       1  UNL1        0.1552
      5 C         140.3027  144.2446  159.0879 C.ar    1  UNL1        0.0507
      6 C         139.4036  143.6005  158.0746 C.ar    1  UNL1        0.0178
      7 C         139.3578  144.1265  156.6706 C.ar    1  UNL1        0.0385
      8 C         140.2111  145.2967  156.2799 C.ar    1  UNL1        0.1469
      9 C         141.1102  145.9408  157.2932 C.ar    1  UNL1        0.0385
     10 C         141.1559  145.4148  158.6971 C.ar    1  UNL1        0.0178
     11 O         140.1653  145.8227  154.8759 O.3     1  UNL1       -0.4045
     12 C         139.7654  147.2456  154.6207 C.3     1  UNL1        0.5753
     13 F         139.3655  148.6687  154.3656 F       1  UNL1       -0.1328
     14 F         138.5594  147.0633  155.4938 F       1  UNL1       -0.1328
     15 F         140.9714  147.4280  153.7477 F       1  UNL1       -0.1328
     16 C         139.8314  144.0090  163.0214 C.ar    1  UNL1        0.0534
     17 C         139.1706  144.7728  164.1304 C.ar    1  UNL1        0.0045
     18 C         139.2164  144.2468  165.5344 C.ar    1  UNL1       -0.0001
     19 C         139.9230  142.9570  165.8294 C.ar    1  UNL1       -0.0029
     20 C         140.5838  142.1931  164.7204 C.ar    1  UNL1       -0.0060
     21 C         140.5380  142.7191  163.3164 C.ar    1  UNL1        0.0016
     22 C         141.2904  140.9033  165.0154 C.3     1  UNL1        0.0993
     23 N         141.0406  139.6981  164.1580 N.3     1  UNL1       -0.2646
     24 C         142.1540  139.1176  163.3375 C.3     1  UNL1        0.1049
     25 C         141.9042  137.9124  162.4801 C.3     1  UNL1        0.1595
     26 O         140.5409  137.2878  162.4432 O.3     1  UNL1       -0.3508
     27 C         139.4275  137.8683  163.2637 C.3     1  UNL1        0.1595
     28 C         139.6773  139.0735  164.1211 C.3     1  UNL1        0.1049
@<TRIPOS>BOND
     1     1     2    2
     2     2     3   am
     3     3     5    1
     4     5     6   ar
     5     6     7   ar
     6     7     8   ar
     7     8    11    1
     8    11    12    1
     9    12    13    1
    10    12    14    1
    11    12    15    1
    12     8     9   ar
    13     9    10   ar
    14     2    16    1
    15    16    17   ar
    16    17    18   ar
    17    18    19   ar
    18    19    20   ar
    19    20    22    1
    20    22    23    1
    21    23    24    1
    22    24    25    1
    23    25    26    1
    24    26    27    1
    25    27    28    1
    26    20    21   ar
    27    10     5   ar
    28    21    16   ar
    29    28    23    1
    30     3     4    1
@<TRIPOS>MOLECULE
*****
 28 30 0 0 0
SMALL
GASTEIGER

@<TRIPOS>ATOM
      1 O         140.8431  145.4565  162.3940 O.2     1  UNL1       -0.2698
      2 C         141.7058  144.2297  162.3640 C.2     1  UNL1        0.2495
      3 N         141.9039  143.4836  161.0779 N.am    1  UNL1       -0.2804
      4 H         142.4701  142.6784  161.0582 H       1  UNL1        0.1552
      5 C         141.2394  143.9641  159.8219 C.ar    1  UNL1        0.0507
      6 C         141.6701  145.2558  159.1925 C.ar    1  UNL1        0.0178
      7 C         141.0056  145.7363  157.9365 C.ar    1  UNL1        0.0385
      8 C         139.9104  144.9252  157.3100 C.ar    1  UNL1        0.1469
      9 C         139.4797  143.6335  157.9393 C.ar    1  UNL1        0.0385
     10 C         140.1442  143.1530  159.1953 C.ar    1  UNL1        0.0178
     11 O         139.2459  145.4057  156.0539 O.3     1  UNL1       -0.4045
     12 C         139.6775  146.6967  155.4238 C.3     1  UNL1        0.5753
     13 F         140.1092  147.9877  154.7936 F       1  UNL1       -0.1328
     14 F         140.7043  145.9593  154.6164 F       1  UNL1       -0.1328
     15 F         138.6508  147.4341  156.2312 F       1  UNL1       -0.1328
     16 C         142.3703  143.7492  163.6200 C.ar    1  UNL1        0.0534
     17 C         143.7824  144.1537  163.9234 C.ar    1  UNL1        0.0045
     18 C         144.4469  143.6732  165.1793 C.ar    1  UNL1       -0.0001
     19 C         143.6991  142.7880  166.1319 C.ar    1  UNL1       -0.0029
     20 C         142.2870  142.3835  165.8286 C.ar    1  UNL1       -0.0060
     21 C         141.6225  142.8640  164.5726 C.ar    1  UNL1        0.0016
     22 C         141.5392  141.4983  166.7812 C.3     1  UNL1        0.0993
     23 N         141.4054  141.8916  168.2225 N.3     1  UNL1       -0.2646
     24 C         142.1815  141.1574  169.2754 C.3     1  UNL1        0.1049
     25 C         142.0476  141.5506  170.7167 C.3     1  UNL1        0.1595
     26 O         141.1377  142.6781  171.1052 O.3     1  UNL1       -0.3508
     27 C         140.3617  143.4123  170.0523 C.3     1  UNL1        0.1595
     28 C         140.4955  143.0191  168.6109 C.3     1  UNL1        0.1049
@<TRIPOS>BOND
     1     1     2    2
     2     2     3   am
     3     3     5    1
     4     5     6   ar
     5     6     7   ar
     6     7     8   ar
     7     8    11    1
     8    11    12    1
     9    12    13    1
    10    12    14    1
    11    12    15    1
    12     8     9   ar
    13     9    10   ar
    14     2    16    1
    15    16    17   ar
    16    17    18   ar
    17    18    19   ar
    18    19    20   ar
    19    20    22    1
    20    22    23    1
    21    23    24    1
    22    24    25    1
    23    25    26    1
    24    26    27    1
    25    27    28    1
    26    20    21   ar
    27    10     5   ar
    28    21    16   ar
    29    28    23    1
    30     3     4    1
