@<TRIPOS>MOLECULE
*****
 30 33 0 0 0
SMALL
GASTEIGER

@<TRIPOS>ATOM
      1 C         138.6056  139.5661  159.7229 C.3     1  UNL1        0.1326
      2 C         139.9220  138.8492  159.7789 C.3     1  UNL1        0.0473
      3 C         140.3226  138.7276  161.2193 C.3     1  UNL1        0.0643
      4 N         139.2538  139.3694  162.0535 N.3     1  UNL1       -0.2727
      5 C         138.1926  139.8877  161.1287 C.3     1  UNL1        0.1020
      6 C         139.2473  139.4745  163.5497 C.3     1  UNL1        0.0609
      7 C         138.7993  138.3094  164.3815 C.3     1  UNL1        0.0375
      8 C         138.7928  138.4145  165.8777 C.3     1  UNL1        0.0950
      9 N         139.2344  139.6847  166.5423 N.pl3   1  UNL1       -0.2785
     10 C         139.6824  140.8498  165.7106 C.3     1  UNL1        0.0950
     11 C         139.6889  140.7447  164.2143 C.3     1  UNL1        0.0375
     12 C         139.2279  139.7898  168.0387 C.ar    1  UNL1        0.2163
     13 N         140.3726  140.2424  168.8956 N.ar    1  UNL1       -0.1804
     14 C         139.9279  140.1931  170.3274 C.ar    1  UNL1        0.2331
     15 N         140.7571  140.5621  171.5216 N.pl3   1  UNL1       -0.3262
     16 N         138.5080  139.7098  170.3551 N.ar    1  UNL1       -0.1354
     17 N         138.0755  139.4606  168.9407 N.ar    1  UNL1       -0.2450
     18 H         141.6843  140.8703  171.4008 H       1  UNL1        0.1452
     19 H         140.3742  140.4960  172.4261 H       1  UNL1        0.1452
     20 H         137.1906  139.1376  168.6545 H       1  UNL1        0.1919
     21 C         138.1239  141.1769  157.7421 C.3     1  UNL1        0.1741
     22 O         137.8370  139.9025  158.4794 O.3     1  UNL1       -0.3521
     23 C         141.5725  138.0783  161.7349 C.3     1  UNL1        0.0424
     24 C         142.6898  138.9229  162.2719 C.ar    1  UNL1       -0.0208
     25 C         143.2916  140.0007  161.4196 C.ar    1  UNL1       -0.0034
     26 C         144.4089  140.8453  161.9565 C.ar    1  UNL1        0.0111
     27 C         144.9244  140.6121  163.3457 C.ar    1  UNL1        0.0577
     28 CL        146.0417  141.4567  163.8827 Cl      1  UNL1       -0.0822
     29 C         144.3227  139.5343  164.1980 C.ar    1  UNL1        0.0111
     30 C         143.2054  138.6898  163.6610 C.ar    1  UNL1       -0.0034
@<TRIPOS>BOND
     1    21    22    1
     2     1    22    1
     3     1     2    1
     4     2     3    1
     5     3    23    1
     6    23    24    1
     7    24    25   ar
     8    25    26   ar
     9    26    27   ar
    10    27    28    1
    11    27    29   ar
    12    29    30   ar
    13     3     4    1
    14     4     6    1
    15     6     7    1
    16     7     8    1
    17     8     9    1
    18     9    12    1
    19    12    13   ar
    20    13    14   ar
    21    14    15    1
    22    14    16   ar
    23    16    17   ar
    24     9    10    1
    25    10    11    1
    26     4     5    1
    27     5     1    1
    28    30    24   ar
    29    11     6    1
    30    17    12   ar
    31    15    18    1
    32    15    19    1
    33    17    20    1
@<TRIPOS>MOLECULE
*****
 30 33 0 0 0
SMALL
GASTEIGER

@<TRIPOS>ATOM
      1 C         142.6472  140.3975  168.8497 C.3     1  UNL1        0.1326
      2 C         142.8062  139.1421  168.0443 C.3     1  UNL1        0.0473
      3 C         142.5767  139.4843  166.6021 C.3     1  UNL1        0.0643
      4 N         142.2758  140.9513  166.5160 N.3     1  UNL1       -0.2727
      5 C         142.3194  141.5158  167.9051 C.3     1  UNL1        0.1020
      6 C         141.9828  141.7191  165.2612 C.3     1  UNL1        0.0609
      7 C         143.1024  142.1117  164.3434 C.3     1  UNL1        0.0375
      8 C         142.8095  142.8795  163.0886 C.3     1  UNL1        0.0950
      9 N         141.3968  143.2548  162.7515 N.pl3   1  UNL1       -0.2785
     10 C         140.2772  142.8623  163.6693 C.3     1  UNL1        0.0950
     11 C         140.5702  142.0944  164.9242 C.3     1  UNL1        0.0375
     12 C         141.1038  144.0226  161.4966 C.ar    1  UNL1        0.2163
     13 N         142.1173  144.5069  160.5026 N.ar    1  UNL1       -0.1804
     14 C         141.3859  145.2246  159.4071 C.ar    1  UNL1        0.2331
     15 N         142.0103  145.8697  158.2055 N.pl3   1  UNL1       -0.3262
     16 N         139.9203  145.1837  159.7242 N.ar    1  UNL1       -0.1354
     17 N         139.7460  144.4409  161.0156 N.ar    1  UNL1       -0.2450
     18 H         142.9870  145.8437  158.0846 H       1  UNL1        0.1452
     19 H         141.4435  146.3192  157.5377 H       1  UNL1        0.1452
     20 H         138.8906  144.2596  161.4681 H       1  UNL1        0.1919
     21 C         141.6803  141.1062  171.1547 C.3     1  UNL1        0.1741
     22 O         142.7908  140.5143  170.3382 O.3     1  UNL1       -0.3521
     23 C         142.6374  138.5276  165.4484 C.3     1  UNL1        0.0424
     24 C         141.4470  138.3573  164.5518 C.ar    1  UNL1       -0.0208
     25 C         140.0637  138.3676  165.1318 C.ar    1  UNL1       -0.0034
     26 C         138.8733  138.1974  164.2351 C.ar    1  UNL1        0.0111
     27 C         139.0662  138.0168  162.7585 C.ar    1  UNL1        0.0577
     28 CL        137.8758  137.8466  161.8619 Cl      1  UNL1       -0.0822
     29 C         140.4495  138.0066  162.1787 C.ar    1  UNL1        0.0111
     30 C         141.6399  138.1768  163.0753 C.ar    1  UNL1       -0.0034
@<TRIPOS>BOND
     1    21    22    1
     2     1    22    1
     3     1     2    1
     4     2     3    1
     5     3    23    1
     6    23    24    1
     7    24    25   ar
     8    25    26   ar
     9    26    27   ar
    10    27    28    1
    11    27    29   ar
    12    29    30   ar
    13     3     4    1
    14     4     6    1
    15     6     7    1
    16     7     8    1
    17     8     9    1
    18     9    12    1
    19    12    13   ar
    20    13    14   ar
    21    14    15    1
    22    14    16   ar
    23    16    17   ar
    24     9    10    1
    25    10    11    1
    26     4     5    1
    27     5     1    1
    28    30    24   ar
    29    11     6    1
    30    17    12   ar
    31    15    18    1
    32    15    19    1
    33    17    20    1
@<TRIPOS>MOLECULE
*****
 30 33 0 0 0
SMALL
GASTEIGER

@<TRIPOS>ATOM
      1 C         141.1225  144.6992  160.2595 C.3     1  UNL1        0.1326
      2 C         139.9026  143.8449  160.0810 C.3     1  UNL1        0.0473
      3 C         139.4995  143.3249  161.4291 C.3     1  UNL1        0.0643
      4 N         140.4704  143.8579  162.4407 N.3     1  UNL1       -0.2727
      5 C         141.4735  144.7072  161.7179 C.3     1  UNL1        0.1020
      6 C         140.4431  143.5888  163.9161 C.3     1  UNL1        0.0609
      7 C         141.3819  142.5823  164.5124 C.3     1  UNL1        0.0375
      8 C         141.3546  142.3131  165.9878 C.3     1  UNL1        0.0950
      9 N         140.3883  143.0505  166.8669 N.pl3   1  UNL1       -0.2785
     10 C         139.4495  144.0569  166.2706 C.3     1  UNL1        0.0950
     11 C         139.4768  144.3261  164.7951 C.3     1  UNL1        0.0375
     12 C         140.3610  142.7813  168.3423 C.ar    1  UNL1        0.2163
     13 N         140.4971  141.4383  168.9961 N.ar    1  UNL1       -0.1804
     14 C         140.4130  141.6347  170.4808 C.ar    1  UNL1        0.2331
     15 N         140.5015  140.5561  171.5194 N.pl3   1  UNL1       -0.3262
     16 N         140.2249  143.0994  170.7446 N.ar    1  UNL1       -0.1354
     17 N         140.1927  143.8080  169.4229 N.ar    1  UNL1       -0.2450
     18 H         140.6262  139.6185  171.2460 H       1  UNL1        0.1452
     19 H         140.4349  140.7856  172.4745 H       1  UNL1        0.1452
     20 H         140.0808  144.7768  169.2883 H       1  UNL1        0.1919
     21 C         141.1637  145.7568  157.8868 C.3     1  UNL1        0.1741
     22 O         141.8618  145.4191  159.1708 O.3     1  UNL1       -0.3521
     23 C         138.3308  142.4293  161.7152 C.3     1  UNL1        0.0424
     24 C         138.5155  141.2008  162.5558 C.ar    1  UNL1       -0.0208
     25 C         139.2776  140.0283  162.0131 C.ar    1  UNL1       -0.0034
     26 C         139.4623  138.7997  162.8537 C.ar    1  UNL1        0.0111
     27 C         138.8849  138.7437  164.2370 C.ar    1  UNL1        0.0577
     28 CL        139.0696  137.5152  165.0776 Cl      1  UNL1       -0.0822
     29 C         138.1228  139.9162  164.7797 C.ar    1  UNL1        0.0111
     30 C         137.9382  141.1447  163.9391 C.ar    1  UNL1       -0.0034
@<TRIPOS>BOND
     1    21    22    1
     2     1    22    1
     3     1     2    1
     4     2     3    1
     5     3    23    1
     6    23    24    1
     7    24    25   ar
     8    25    26   ar
     9    26    27   ar
    10    27    28    1
    11    27    29   ar
    12    29    30   ar
    13     3     4    1
    14     4     6    1
    15     6     7    1
    16     7     8    1
    17     8     9    1
    18     9    12    1
    19    12    13   ar
    20    13    14   ar
    21    14    15    1
    22    14    16   ar
    23    16    17   ar
    24     9    10    1
    25    10    11    1
    26     4     5    1
    27     5     1    1
    28    30    24   ar
    29    11     6    1
    30    17    12   ar
    31    15    18    1
    32    15    19    1
    33    17    20    1
@<TRIPOS>MOLECULE
*****
 30 33 0 0 0
SMALL
GASTEIGER

@<TRIPOS>ATOM
      1 C         141.3229  140.6096  168.8618 C.3     1  UNL1        0.1326
      2 C         140.0493  139.9190  168.4732 C.3     1  UNL1        0.0473
      3 C         139.6561  140.4045  167.1096 C.3     1  UNL1        0.0643
      4 N         140.6867  141.3952  166.6553 N.3     1  UNL1       -0.2727
      5 C         141.7168  141.5220  167.7382 C.3     1  UNL1        0.1020
      6 C         140.6871  142.1302  165.3477 C.3     1  UNL1        0.0609
      7 C         139.8323  143.3504  165.1729 C.3     1  UNL1        0.0375
      8 C         139.8327  144.0853  163.8653 C.3     1  UNL1        0.0950
      9 N         140.6878  143.6000  162.7325 N.pl3   1  UNL1       -0.2785
     10 C         141.5425  142.3799  162.9072 C.3     1  UNL1        0.0950
     11 C         141.5422  141.6449  164.2149 C.3     1  UNL1        0.0375
     12 C         140.6882  144.3351  161.4248 C.ar    1  UNL1        0.2163
     13 N         141.8810  144.5714  160.5467 N.ar    1  UNL1       -0.1804
     14 C         141.4259  145.3451  159.3449 C.ar    1  UNL1        0.2331
     15 N         142.2926  145.7976  158.2074 N.pl3   1  UNL1       -0.3262
     16 N         139.9517  145.5870  159.4804 N.ar    1  UNL1       -0.1354
     17 N         139.4958  144.9627  160.7659 N.ar    1  UNL1       -0.2450
     18 H         143.2549  145.5893  158.2086 H       1  UNL1        0.1452
     19 H         141.8993  146.3029  157.4595 H       1  UNL1        0.1452
     20 H         138.5755  144.9646  161.1157 H       1  UNL1        0.1919
     21 C         141.7807  141.3085  171.3219 C.3     1  UNL1        0.1741
     22 O         142.0712  140.4209  170.1480 O.3     1  UNL1       -0.3521
     23 C         138.4449  139.9748  166.3360 C.3     1  UNL1        0.0424
     24 C         138.5913  139.4790  164.9279 C.ar    1  UNL1       -0.0208
     25 C         138.0135  140.2686  163.7909 C.ar    1  UNL1       -0.0034
     26 C         138.1599  139.7729  162.3828 C.ar    1  UNL1        0.0111
     27 C         138.8841  138.4875  162.1116 C.ar    1  UNL1        0.0577
     28 CL        139.0305  137.9918  160.7035 Cl      1  UNL1       -0.0822
     29 C         139.4619  137.6980  163.2486 C.ar    1  UNL1        0.0111
     30 C         139.3155  138.1937  164.6567 C.ar    1  UNL1       -0.0034
@<TRIPOS>BOND
     1    21    22    1
     2     1    22    1
     3     1     2    1
     4     2     3    1
     5     3    23    1
     6    23    24    1
     7    24    25   ar
     8    25    26   ar
     9    26    27   ar
    10    27    28    1
    11    27    29   ar
    12    29    30   ar
    13     3     4    1
    14     4     6    1
    15     6     7    1
    16     7     8    1
    17     8     9    1
    18     9    12    1
    19    12    13   ar
    20    13    14   ar
    21    14    15    1
    22    14    16   ar
    23    16    17   ar
    24     9    10    1
    25    10    11    1
    26     4     5    1
    27     5     1    1
    28    30    24   ar
    29    11     6    1
    30    17    12   ar
    31    15    18    1
    32    15    19    1
    33    17    20    1
@<TRIPOS>MOLECULE
*****
 30 33 0 0 0
SMALL
GASTEIGER

@<TRIPOS>ATOM
      1 C         138.3788  139.3470  167.0649 C.3     1  UNL1        0.1326
      2 C         139.5630  139.9347  167.7737 C.3     1  UNL1        0.0473
      3 C         140.2262  140.9051  166.8418 C.3     1  UNL1        0.0643
      4 N         139.4520  140.9172  165.5571 N.3     1  UNL1       -0.2727
      5 C         138.3102  139.9542  165.6950 C.3     1  UNL1        0.1020
      6 C         139.7646  141.7466  164.3470 C.3     1  UNL1        0.0609
      7 C         140.3272  141.0971  163.1175 C.3     1  UNL1        0.0375
      8 C         140.6398  141.9264  161.9074 C.3     1  UNL1        0.0950
      9 N         140.3899  143.4054  161.9269 N.pl3   1  UNL1       -0.2785
     10 C         139.8274  144.0549  163.1563 C.3     1  UNL1        0.0950
     11 C         139.5147  143.2255  164.3665 C.3     1  UNL1        0.0375
     12 C         140.7026  144.2348  160.7167 C.ar    1  UNL1        0.2163
     13 N         139.7682  144.5211  159.5788 N.ar    1  UNL1       -0.1804
     14 C         140.4926  145.3867  158.5907 C.ar    1  UNL1        0.2331
     15 N         139.9332  145.9115  157.3017 N.pl3   1  UNL1       -0.3262
     16 N         141.8747  145.6353  159.1182 N.ar    1  UNL1       -0.1354
     17 N         142.0044  144.9234  160.4321 N.ar    1  UNL1       -0.2450
     18 H         139.0096  145.6923  157.0405 H       1  UNL1        0.1452
     19 H         140.4896  146.4751  156.7169 H       1  UNL1        0.1452
     20 H         142.8037  144.9103  161.0067 H       1  UNL1        0.1919
     21 C         137.2789  136.9955  166.9602 C.3     1  UNL1        0.1741
     22 O         137.4298  138.3305  167.6273 O.3     1  UNL1       -0.3521
     23 C         141.4490  141.7203  167.1420 C.3     1  UNL1        0.0424
     24 C         142.6078  141.7129  166.1895 C.ar    1  UNL1       -0.0208
     25 C         143.0809  140.4199  165.5941 C.ar    1  UNL1       -0.0034
     26 C         144.2397  140.4124  164.6416 C.ar    1  UNL1        0.0111
     27 C         144.9254  141.6979  164.2846 C.ar    1  UNL1        0.0577
     28 CL        146.0842  141.6904  163.3322 Cl      1  UNL1       -0.0822
     29 C         144.4523  142.9908  164.8801 C.ar    1  UNL1        0.0111
     30 C         143.2935  142.9983  165.8325 C.ar    1  UNL1       -0.0034
@<TRIPOS>BOND
     1    21    22    1
     2     1    22    1
     3     1     2    1
     4     2     3    1
     5     3    23    1
     6    23    24    1
     7    24    25   ar
     8    25    26   ar
     9    26    27   ar
    10    27    28    1
    11    27    29   ar
    12    29    30   ar
    13     3     4    1
    14     4     6    1
    15     6     7    1
    16     7     8    1
    17     8     9    1
    18     9    12    1
    19    12    13   ar
    20    13    14   ar
    21    14    15    1
    22    14    16   ar
    23    16    17   ar
    24     9    10    1
    25    10    11    1
    26     4     5    1
    27     5     1    1
    28    30    24   ar
    29    11     6    1
    30    17    12   ar
    31    15    18    1
    32    15    19    1
    33    17    20    1
@<TRIPOS>MOLECULE
*****
 30 33 0 0 0
SMALL
GASTEIGER

@<TRIPOS>ATOM
      1 C         141.1119  144.5974  160.5791 C.3     1  UNL1        0.1326
      2 C         139.6995  144.1068  160.6997 C.3     1  UNL1        0.0473
      3 C         139.5927  143.3080  161.9648 C.3     1  UNL1        0.0643
      4 N         140.9391  143.3048  162.6261 N.3     1  UNL1       -0.2727
      5 C         141.8780  144.1017  161.7697 C.3     1  UNL1        0.1020
      6 C         141.2857  142.6243  163.9171 C.3     1  UNL1        0.0609
      7 C         141.9797  141.2946  163.9012 C.3     1  UNL1        0.0375
      8 C         142.3264  140.6140  165.1921 C.3     1  UNL1        0.0950
      9 N         141.9789  141.2632  166.4991 N.pl3   1  UNL1       -0.2785
     10 C         141.2849  142.5927  166.5150 C.3     1  UNL1        0.0950
     11 C         140.9382  143.2734  165.2239 C.3     1  UNL1        0.0375
     12 C         142.3255  140.5825  167.7901 C.ar    1  UNL1        0.2163
     13 N         142.2197  141.1841  169.1600 N.ar    1  UNL1       -0.1804
     14 C         142.6676  140.1543  170.1545 C.ar    1  UNL1        0.2331
     15 N         142.7230  140.3314  171.6429 N.pl3   1  UNL1       -0.3262
     16 N         143.0503  138.9162  169.3990 N.ar    1  UNL1       -0.1354
     17 N         142.8389  139.1809  167.9377 N.ar    1  UNL1       -0.2450
     18 H         142.4494  141.1862  172.0475 H       1  UNL1        0.1452
     19 H         143.0331  139.5928  172.2153 H       1  UNL1        0.1452
     20 H         143.0075  138.5461  167.2043 H       1  UNL1        0.1919
     21 C         141.9958  144.8049  158.1449 C.3     1  UNL1        0.1741
     22 O         141.6617  145.4363  159.4638 O.3     1  UNL1       -0.3521
     23 C         138.3566  142.6312  162.4784 C.3     1  UNL1        0.0424
     24 C         138.4615  141.3088  163.1787 C.ar    1  UNL1       -0.0208
     25 C         138.1309  141.2048  164.6382 C.ar    1  UNL1       -0.0034
     26 C         138.2358  139.8825  165.3385 C.ar    1  UNL1        0.0111
     27 C         138.6713  138.6642  164.5794 C.ar    1  UNL1        0.0577
     28 CL        138.7762  137.3419  165.2797 Cl      1  UNL1       -0.0822
     29 C         139.0018  138.7683  163.1200 C.ar    1  UNL1        0.0111
     30 C         138.8969  140.0906  162.4197 C.ar    1  UNL1       -0.0034
@<TRIPOS>BOND
     1    21    22    1
     2     1    22    1
     3     1     2    1
     4     2     3    1
     5     3    23    1
     6    23    24    1
     7    24    25   ar
     8    25    26   ar
     9    26    27   ar
    10    27    28    1
    11    27    29   ar
    12    29    30   ar
    13     3     4    1
    14     4     6    1
    15     6     7    1
    16     7     8    1
    17     8     9    1
    18     9    12    1
    19    12    13   ar
    20    13    14   ar
    21    14    15    1
    22    14    16   ar
    23    16    17   ar
    24     9    10    1
    25    10    11    1
    26     4     5    1
    27     5     1    1
    28    30    24   ar
    29    11     6    1
    30    17    12   ar
    31    15    18    1
    32    15    19    1
    33    17    20    1
@<TRIPOS>MOLECULE
*****
 30 33 0 0 0
SMALL
GASTEIGER

@<TRIPOS>ATOM
      1 C         142.5769  138.1057  159.9201 C.3     1  UNL1        0.1326
      2 C         141.1557  138.5825  159.9733 C.3     1  UNL1        0.0473
      3 C         140.9040  139.1373  161.3440 C.3     1  UNL1        0.0643
      4 N         142.1696  139.0034  162.1379 N.3     1  UNL1       -0.2727
      5 C         143.2036  138.3659  161.2579 C.3     1  UNL1        0.1020
      6 C         142.3667  139.4319  163.5618 C.3     1  UNL1        0.0609
      7 C         142.4794  140.8894  163.8977 C.3     1  UNL1        0.0375
      8 C         142.6764  141.3179  165.3216 C.3     1  UNL1        0.0950
      9 N         142.7609  140.2888  166.4097 N.pl3   1  UNL1       -0.2785
     10 C         142.6482  138.8313  166.0738 C.3     1  UNL1        0.0950
     11 C         142.4511  138.4028  164.6498 C.3     1  UNL1        0.0375
     12 C         142.9580  140.7173  167.8336 C.ar    1  UNL1        0.2163
     13 N         143.1479  142.1262  168.3120 N.ar    1  UNL1       -0.1804
     14 C         143.3071  142.0919  169.8032 C.ar    1  UNL1        0.2331
     15 N         143.5203  143.2792  170.6947 N.pl3   1  UNL1       -0.3262
     16 N         143.2155  140.6617  170.2463 N.ar    1  UNL1       -0.1354
     17 N         142.9997  139.8122  169.0290 N.ar    1  UNL1       -0.2450
     18 H         143.5666  144.1833  170.3078 H       1  UNL1        0.1452
     19 H         143.6141  143.1544  171.6668 H       1  UNL1        0.1452
     20 H         142.9026  138.8326  169.0168 H       1  UNL1        0.1919
     21 C         142.5553  137.4374  157.4095 C.3     1  UNL1        0.1741
     22 O         143.2528  137.4788  158.7368 O.3     1  UNL1       -0.3521
     23 C         139.6132  139.7231  161.8346 C.3     1  UNL1        0.0424
     24 C         139.1218  139.4044  163.2155 C.ar    1  UNL1       -0.0208
     25 C         139.0316  137.9772  163.6687 C.ar    1  UNL1       -0.0034
     26 C         138.5403  137.6584  165.0496 C.ar    1  UNL1        0.0111
     27 C         138.1391  138.7668  165.9774 C.ar    1  UNL1        0.0577
     28 CL        137.6477  138.4480  167.3583 Cl      1  UNL1       -0.0822
     29 C         138.2293  140.1938  165.5242 C.ar    1  UNL1        0.0111
     30 C         138.7207  140.5126  164.1433 C.ar    1  UNL1       -0.0034
@<TRIPOS>BOND
     1    21    22    1
     2     1    22    1
     3     1     2    1
     4     2     3    1
     5     3    23    1
     6    23    24    1
     7    24    25   ar
     8    25    26   ar
     9    26    27   ar
    10    27    28    1
    11    27    29   ar
    12    29    30   ar
    13     3     4    1
    14     4     6    1
    15     6     7    1
    16     7     8    1
    17     8     9    1
    18     9    12    1
    19    12    13   ar
    20    13    14   ar
    21    14    15    1
    22    14    16   ar
    23    16    17   ar
    24     9    10    1
    25    10    11    1
    26     4     5    1
    27     5     1    1
    28    30    24   ar
    29    11     6    1
    30    17    12   ar
    31    15    18    1
    32    15    19    1
    33    17    20    1
@<TRIPOS>MOLECULE
*****
 30 33 0 0 0
SMALL
GASTEIGER

@<TRIPOS>ATOM
      1 C         141.7303  143.7639  160.5743 C.3     1  UNL1        0.1326
      2 C         141.9104  142.2992  160.3055 C.3     1  UNL1        0.0473
      3 C         141.7079  141.5627  161.5964 C.3     1  UNL1        0.0643
      4 N         141.4027  142.5722  162.6631 N.3     1  UNL1       -0.2727
      5 C         141.4165  143.9326  162.0315 C.3     1  UNL1        0.1020
      6 C         141.1313  142.2736  164.1078 C.3     1  UNL1        0.0609
      7 C         142.1726  142.5752  165.1445 C.3     1  UNL1        0.0375
      8 C         141.9013  142.2767  166.5891 C.3     1  UNL1        0.0950
      9 N         140.5885  141.6766  166.9972 N.pl3   1  UNL1       -0.2785
     10 C         139.5472  141.3750  165.9606 C.3     1  UNL1        0.0950
     11 C         139.8185  141.6735  164.5159 C.3     1  UNL1        0.0375
     12 C         140.3171  141.3780  168.4420 C.ar    1  UNL1        0.2163
     13 N         140.1472  140.0146  169.0437 N.ar    1  UNL1       -0.1804
     14 C         139.8931  140.1844  170.5123 C.ar    1  UNL1        0.2331
     15 N         139.6660  139.0797  171.5013 N.pl3   1  UNL1       -0.3262
     16 N         139.9060  141.6529  170.8181 N.ar    1  UNL1       -0.1354
     17 N         140.1680  142.3906  169.5386 N.ar    1  UNL1       -0.2450
     18 H         139.6762  138.1417  171.2026 H       1  UNL1        0.1452
     19 H         139.5067  139.2928  172.4492 H       1  UNL1        0.1452
     20 H         140.2311  143.3677  169.4365 H       1  UNL1        0.1919
     21 C         142.3339  144.5660  158.1780 C.3     1  UNL1        0.1741
     22 O         141.8440  144.8664  159.5635 O.3     1  UNL1       -0.3521
     23 C         141.7954  140.0775  161.7872 C.3     1  UNL1        0.0424
     24 C         142.3780  139.5165  163.0504 C.ar    1  UNL1       -0.0208
     25 C         143.7932  139.8371  163.4306 C.ar    1  UNL1       -0.0034
     26 C         144.3758  139.2761  164.6939 C.ar    1  UNL1        0.0111
     27 C         143.5432  138.3947  165.5770 C.ar    1  UNL1        0.0577
     28 CL        144.1258  137.8337  166.8403 Cl      1  UNL1       -0.0822
     29 C         142.1281  138.0742  165.1968 C.ar    1  UNL1        0.0111
     30 C         141.5454  138.6351  163.9336 C.ar    1  UNL1       -0.0034
@<TRIPOS>BOND
     1    21    22    1
     2     1    22    1
     3     1     2    1
     4     2     3    1
     5     3    23    1
     6    23    24    1
     7    24    25   ar
     8    25    26   ar
     9    26    27   ar
    10    27    28    1
    11    27    29   ar
    12    29    30   ar
    13     3     4    1
    14     4     6    1
    15     6     7    1
    16     7     8    1
    17     8     9    1
    18     9    12    1
    19    12    13   ar
    20    13    14   ar
    21    14    15    1
    22    14    16   ar
    23    16    17   ar
    24     9    10    1
    25    10    11    1
    26     4     5    1
    27     5     1    1
    28    30    24   ar
    29    11     6    1
    30    17    12   ar
    31    15    18    1
    32    15    19    1
    33    17    20    1
@<TRIPOS>MOLECULE
*****
 30 33 0 0 0
SMALL
GASTEIGER

@<TRIPOS>ATOM
      1 C         142.3089  139.5046  160.0494 C.3     1  UNL1        0.1326
      2 C         141.0609  140.2859  159.7630 C.3     1  UNL1        0.0473
      3 C         140.3642  140.5407  161.0667 C.3     1  UNL1        0.0643
      4 N         141.1816  139.9168  162.1588 N.3     1  UNL1       -0.2727
      5 C         142.3835  139.2764  161.5301 C.3     1  UNL1        0.1020
      6 C         140.8545  139.9308  163.6226 C.3     1  UNL1        0.0609
      7 C         141.6384  140.8029  164.5580 C.3     1  UNL1        0.0375
      8 C         141.3114  140.8169  166.0218 C.3     1  UNL1        0.0950
      9 N         140.2003  139.9589  166.5503 N.pl3   1  UNL1       -0.2785
     10 C         139.4163  139.0869  165.6150 C.3     1  UNL1        0.0950
     11 C         139.7434  139.0728  164.1511 C.3     1  UNL1        0.0375
     12 C         139.8732  139.9729  168.0142 C.ar    1  UNL1        0.2163
     13 N         140.7995  140.3827  169.1205 N.ar    1  UNL1       -0.1804
     14 C         140.0613  140.2427  170.4188 C.ar    1  UNL1        0.2331
     15 N         140.6093  140.5458  171.7818 N.pl3   1  UNL1       -0.3262
     16 N         138.6788  139.7465  170.1147 N.ar    1  UNL1       -0.1354
     17 N         138.5626  139.5798  168.6286 N.ar    1  UNL1       -0.2450
     18 H         141.5342  140.8687  171.8799 H       1  UNL1        0.1452
     19 H         140.0442  140.4218  172.5784 H       1  UNL1        0.1452
     20 H         137.7659  139.2671  168.1419 H       1  UNL1        0.1919
     21 C         142.8430  138.3021  157.8091 C.3     1  UNL1        0.1741
     22 O         143.3071  139.0339  159.0334 O.3     1  UNL1       -0.3521
     23 C         139.0762  141.2881  161.2467 C.3     1  UNL1        0.0424
     24 C         138.9219  142.2534  162.3844 C.ar    1  UNL1       -0.0208
     25 C         137.8146  142.0691  163.3794 C.ar    1  UNL1       -0.0034
     26 C         137.6603  143.0344  164.5171 C.ar    1  UNL1        0.0111
     27 C         138.6132  144.1840  164.6598 C.ar    1  UNL1        0.0577
     28 CL        138.4589  145.1493  165.7975 Cl      1  UNL1       -0.0822
     29 C         139.7205  144.3683  163.6648 C.ar    1  UNL1        0.0111
     30 C         139.8748  143.4030  162.5271 C.ar    1  UNL1       -0.0034
@<TRIPOS>BOND
     1    21    22    1
     2     1    22    1
     3     1     2    1
     4     2     3    1
     5     3    23    1
     6    23    24    1
     7    24    25   ar
     8    25    26   ar
     9    26    27   ar
    10    27    28    1
    11    27    29   ar
    12    29    30   ar
    13     3     4    1
    14     4     6    1
    15     6     7    1
    16     7     8    1
    17     8     9    1
    18     9    12    1
    19    12    13   ar
    20    13    14   ar
    21    14    15    1
    22    14    16   ar
    23    16    17   ar
    24     9    10    1
    25    10    11    1
    26     4     5    1
    27     5     1    1
    28    30    24   ar
    29    11     6    1
    30    17    12   ar
    31    15    18    1
    32    15    19    1
    33    17    20    1
