@<TRIPOS>MOLECULE
*****
 32 37 0 0 0
SMALL
GASTEIGER

@<TRIPOS>ATOM
      1 C         144.0940  130.6299  154.6155 C.2     1  UNL1       -0.0198
      2 C         144.8580  131.0744  155.8274 C.2     1  UNL1       -0.0042
      3 C         144.5355  132.3872  156.4775 C.2     1  UNL1        0.0006
      4 C         143.4490  133.2554  155.9158 C.2     1  UNL1        0.0111
      5 C         142.9114  134.5904  156.3387 C.2     1  UNL1       -0.0044
      6 C         141.8151  134.9709  155.3883 C.2     1  UNL1        0.0689
      7 N         141.6751  133.8711  154.3779 N.2     1  UNL1       -0.2526
      8 C         142.6850  132.8109  154.7039 C.2     1  UNL1        0.0627
      9 C         143.0075  131.4981  154.0538 C.3     1  UNL1        0.0717
     10 C         141.0859  136.2696  155.5657 C.3     1  UNL1        0.0949
     11 N         141.4530  137.1880  156.6936 N.3     1  UNL1       -0.2887
     12 C         142.5494  136.8074  157.6440 C.3     1  UNL1        0.1161
     13 C         143.2786  135.5086  157.4666 C.3     1  UNL1        0.0510
     14 H         140.6103  137.3185  157.2532 H       1  UNL1        0.1239
     15 C         139.9897  136.6502  154.6153 C.3     1  UNL1        0.0252
     16 C         138.6968  137.1985  155.1425 C.3     1  UNL1        0.0339
     17 C         137.6005  137.5790  154.1920 C.3     1  UNL1        0.1422
     18 O         137.7970  137.4112  152.7145 O.3     1  UNL1       -0.3538
     19 C         139.0899  136.8629  152.1874 C.3     1  UNL1        0.1422
     20 C         140.1862  136.4824  153.1378 C.3     1  UNL1        0.0339
     21 C         142.9165  137.7257  158.7719 C.ar    1  UNL1        0.1318
     22 N         142.8025  137.4146  160.2349 N.ar    1  UNL1       -0.2298
     23 C         143.2777  138.6129  161.0019 C.ar    1  UNL1        0.0997
     24 C         143.6853  139.6645  160.0130 C.ar    1  UNL1        0.0927
     25 N         143.4621  139.1162  158.6348 N.ar    1  UNL1       -0.3386
     26 H         143.6421  139.5864  157.7888 H       1  UNL1        0.1672
     27 C         143.3351  138.7377  162.4956 C.ar    1  UNL1        0.0223
     28 C         142.2502  138.1384  163.3405 C.ar    1  UNL1        0.0222
     29 C         142.3075  138.2631  164.8341 C.ar    1  UNL1        0.0989
     30 N         143.4498  138.9871  165.4830 N.ar    1  UNL1       -0.2423
     31 C         144.5348  139.5864  164.6381 C.ar    1  UNL1        0.0989
     32 C         144.4774  139.4616  163.1444 C.ar    1  UNL1        0.0222
@<TRIPOS>BOND
     1     1     2    2
     2     2     3    1
     3     3     4    2
     4     4     5    1
     5     5     6    2
     6     6     7    1
     7     7     8    2
     8     8     9    1
     9     6    10    1
    10    10    15    1
    11    15    16    1
    12    16    17    1
    13    17    18    1
    14    18    19    1
    15    19    20    1
    16    10    11    1
    17    11    12    1
    18    12    21    1
    19    21    22   ar
    20    22    23   ar
    21    23    27    1
    22    27    28   ar
    23    28    29   ar
    24    29    30   ar
    25    30    31   ar
    26    31    32   ar
    27    23    24   ar
    28    24    25   ar
    29    12    13    1
    30     9     1    1
    31    20    15    1
    32    25    21   ar
    33     8     4    1
    34    32    27   ar
    35    13     5    1
    36    11    14    1
    37    25    26    1
@<TRIPOS>MOLECULE
*****
 32 37 0 0 0
SMALL
GASTEIGER

@<TRIPOS>ATOM
      1 C         144.7430  143.2028  164.0961 C.2     1  UNL1       -0.0198
      2 C         145.2255  141.8045  163.8475 C.2     1  UNL1       -0.0042
      3 C         144.9167  141.1247  162.5466 C.2     1  UNL1        0.0006
      4 C         144.1254  141.8432  161.4942 C.2     1  UNL1        0.0111
      5 C         143.6704  141.4324  160.1252 C.2     1  UNL1       -0.0044
      6 C         142.9067  142.5768  159.5276 C.2     1  UNL1        0.0689
      7 N         142.8897  143.6950  160.5274 N.2     1  UNL1       -0.2526
      8 C         143.6429  143.2415  161.7428 C.2     1  UNL1        0.0627
      9 C         143.9517  143.9213  163.0437 C.3     1  UNL1        0.0717
     10 C         142.3254  142.4529  158.1504 C.3     1  UNL1        0.0949
     11 N         142.5079  141.1845  157.3706 N.3     1  UNL1       -0.2887
     12 C         143.2716  140.0400  157.9682 C.3     1  UNL1        0.1161
     13 C         143.8528  140.1640  159.3455 C.3     1  UNL1        0.0510
     14 H         142.9850  141.4369  156.5052 H       1  UNL1        0.1239
     15 C         141.5618  143.5973  157.5529 C.3     1  UNL1        0.0252
     16 C         142.2383  144.9183  157.3357 C.3     1  UNL1        0.0339
     17 C         141.4746  146.0628  156.7381 C.3     1  UNL1        0.1422
     18 O         140.0344  145.8862  156.3578 O.3     1  UNL1       -0.3538
     19 C         139.3579  144.5652  156.5751 C.3     1  UNL1        0.1422
     20 C         140.1216  143.4207  157.1726 C.3     1  UNL1        0.0339
     21 C         143.4540  138.7717  157.1885 C.ar    1  UNL1        0.1318
     22 N         142.8758  137.4320  157.5363 N.ar    1  UNL1       -0.2298
     23 C         143.3111  136.4527  156.4868 C.ar    1  UNL1        0.0997
     24 C         144.1585  137.1870  155.4904 C.ar    1  UNL1        0.0927
     25 N         144.2467  138.6202  155.9241 N.ar    1  UNL1       -0.3386
     26 H         144.7386  139.3359  155.4603 H       1  UNL1        0.1672
     27 C         142.9607  134.9949  156.4417 C.ar    1  UNL1        0.0223
     28 C         143.7233  134.0138  157.2819 C.ar    1  UNL1        0.0222
     29 C         143.3729  132.5561  157.2367 C.ar    1  UNL1        0.0989
     30 N         142.2599  132.0792  156.3515 N.ar    1  UNL1       -0.2423
     31 C         141.4972  133.0603  155.5112 C.ar    1  UNL1        0.0989
     32 C         141.8477  134.5181  155.5564 C.ar    1  UNL1        0.0222
@<TRIPOS>BOND
     1     1     2    2
     2     2     3    1
     3     3     4    2
     4     4     5    1
     5     5     6    2
     6     6     7    1
     7     7     8    2
     8     8     9    1
     9     6    10    1
    10    10    15    1
    11    15    16    1
    12    16    17    1
    13    17    18    1
    14    18    19    1
    15    19    20    1
    16    10    11    1
    17    11    12    1
    18    12    21    1
    19    21    22   ar
    20    22    23   ar
    21    23    27    1
    22    27    28   ar
    23    28    29   ar
    24    29    30   ar
    25    30    31   ar
    26    31    32   ar
    27    23    24   ar
    28    24    25   ar
    29    12    13    1
    30     9     1    1
    31    20    15    1
    32    25    21   ar
    33     8     4    1
    34    32    27   ar
    35    13     5    1
    36    11    14    1
    37    25    26    1
@<TRIPOS>MOLECULE
*****
 32 37 0 0 0
SMALL
GASTEIGER

@<TRIPOS>ATOM
      1 C         142.8397  139.3750  167.6954 C.2     1  UNL1       -0.0198
      2 C         143.4113  138.3271  166.7870 C.2     1  UNL1       -0.0042
      3 C         143.2478  138.4523  165.3012 C.2     1  UNL1        0.0006
      4 C         142.5127  139.6254  164.7238 C.2     1  UNL1        0.0111
      5 C         142.1959  140.0146  163.3103 C.2     1  UNL1       -0.0044
      6 C         141.4285  141.3030  163.3450 C.2     1  UNL1        0.0689
      7 N         141.2710  141.7101  164.7801 N.2     1  UNL1       -0.2526
      8 C         141.9411  140.6733  165.6322 C.2     1  UNL1        0.0627
      9 C         142.1046  140.5481  167.1180 C.3     1  UNL1        0.0717
     10 C         140.9722  141.9389  162.0654 C.3     1  UNL1        0.0949
     11 N         141.2834  141.2865  160.7510 N.3     1  UNL1       -0.2887
     12 C         142.0508  139.9981  160.7162 C.3     1  UNL1        0.1161
     13 C         142.5070  139.3621  161.9959 C.3     1  UNL1        0.0510
     14 H         141.8183  141.9627  160.2060 H       1  UNL1        0.1239
     15 C         140.2049  143.2272  162.1002 C.3     1  UNL1        0.0252
     16 C         138.8456  143.2737  162.7327 C.3     1  UNL1        0.0339
     17 C         138.0781  144.5621  162.7675 C.3     1  UNL1        0.1422
     18 O         138.6701  145.8040  162.1697 O.3     1  UNL1       -0.3538
     19 C         140.0294  145.7575  161.5372 C.3     1  UNL1        0.1422
     20 C         140.7968  144.4691  161.5024 C.3     1  UNL1        0.0339
     21 C         142.3619  139.3457  159.4019 C.ar    1  UNL1        0.1318
     22 N         141.9443  137.9679  158.9807 N.ar    1  UNL1       -0.2298
     23 C         142.4697  137.7273  157.5965 C.ar    1  UNL1        0.0997
     24 C         143.2119  138.9563  157.1621 C.ar    1  UNL1        0.0927
     25 N         143.1453  139.9565  158.2780 N.ar    1  UNL1       -0.3386
     26 H         143.5455  140.8560  158.2735 H       1  UNL1        0.1672
     27 C         142.2851  136.4771  156.7884 C.ar    1  UNL1        0.0223
     28 C         141.1986  136.4044  155.7568 C.ar    1  UNL1        0.0222
     29 C         141.0141  135.1543  154.9488 C.ar    1  UNL1        0.0989
     30 N         141.9159  133.9767  155.1722 N.ar    1  UNL1       -0.2423
     31 C         143.0024  134.0494  156.2039 C.ar    1  UNL1        0.0989
     32 C         143.1870  135.2996  157.0120 C.ar    1  UNL1        0.0222
@<TRIPOS>BOND
     1     1     2    2
     2     2     3    1
     3     3     4    2
     4     4     5    1
     5     5     6    2
     6     6     7    1
     7     7     8    2
     8     8     9    1
     9     6    10    1
    10    10    15    1
    11    15    16    1
    12    16    17    1
    13    17    18    1
    14    18    19    1
    15    19    20    1
    16    10    11    1
    17    11    12    1
    18    12    21    1
    19    21    22   ar
    20    22    23   ar
    21    23    27    1
    22    27    28   ar
    23    28    29   ar
    24    29    30   ar
    25    30    31   ar
    26    31    32   ar
    27    23    24   ar
    28    24    25   ar
    29    12    13    1
    30     9     1    1
    31    20    15    1
    32    25    21   ar
    33     8     4    1
    34    32    27   ar
    35    13     5    1
    36    11    14    1
    37    25    26    1
@<TRIPOS>MOLECULE
*****
 32 37 0 0 0
SMALL
GASTEIGER

@<TRIPOS>ATOM
      1 C         138.4483  139.1053  167.5238 C.2     1  UNL1       -0.0198
      2 C         137.9779  138.0905  166.5244 C.2     1  UNL1       -0.0042
      3 C         138.4188  138.1865  165.0938 C.2     1  UNL1        0.0006
      4 C         139.3301  139.2972  164.6628 C.2     1  UNL1        0.0111
      5 C         139.9272  139.6462  163.3317 C.2     1  UNL1       -0.0044
      6 C         140.7666  140.8767  163.5086 C.2     1  UNL1        0.0689
      7 N         140.6883  141.2882  164.9489 N.2     1  UNL1       -0.2526
      8 C         139.8004  140.3119  165.6622 C.2     1  UNL1        0.0627
      9 C         139.3596  140.2160  167.0927 C.3     1  UNL1        0.0717
     10 C         141.4938  141.4635  162.3352 C.3     1  UNL1        0.0949
     11 N         141.3816  140.8198  160.9849 N.3     1  UNL1       -0.2887
     12 C         140.5422  139.5893  160.8081 C.3     1  UNL1        0.1161
     13 C         139.8149  139.0025  161.9815 C.3     1  UNL1        0.0510
     14 H         142.3286  140.5742  160.6962 H       1  UNL1        0.1239
     15 C         142.3332  142.6939  162.5120 C.3     1  UNL1        0.0252
     16 C         143.7876  142.6686  162.1460 C.3     1  UNL1        0.0339
     17 C         144.6271  143.8990  162.3228 C.3     1  UNL1        0.1422
     18 O         144.0121  145.1549  162.8656 O.3     1  UNL1       -0.3538
     19 C         142.5577  145.1802  163.2316 C.3     1  UNL1        0.1422
     20 C         141.7182  143.9497  163.0548 C.3     1  UNL1        0.0339
     21 C         140.4299  138.9456  159.4579 C.ar    1  UNL1        0.1318
     22 N         141.4807  138.1092  158.7898 N.ar    1  UNL1       -0.2298
     23 C         140.9473  137.6719  157.4577 C.ar    1  UNL1        0.0997
     24 C         139.5670  138.2381  157.3025 C.ar    1  UNL1        0.0927
     25 N         139.2472  139.0253  158.5387 N.ar    1  UNL1       -0.3386
     26 H         138.4084  139.5092  158.7157 H       1  UNL1        0.1672
     27 C         141.6679  136.8184  156.4566 C.ar    1  UNL1        0.0223
     28 C         143.1443  136.5899  156.5903 C.ar    1  UNL1        0.0222
     29 C         143.8648  135.7364  155.5893 C.ar    1  UNL1        0.0989
     30 N         143.1090  135.1112  154.4544 N.ar    1  UNL1       -0.2423
     31 C         141.6325  135.3397  154.3206 C.ar    1  UNL1        0.0989
     32 C         140.9120  136.1933  155.3218 C.ar    1  UNL1        0.0222
@<TRIPOS>BOND
     1     1     2    2
     2     2     3    1
     3     3     4    2
     4     4     5    1
     5     5     6    2
     6     6     7    1
     7     7     8    2
     8     8     9    1
     9     6    10    1
    10    10    15    1
    11    15    16    1
    12    16    17    1
    13    17    18    1
    14    18    19    1
    15    19    20    1
    16    10    11    1
    17    11    12    1
    18    12    21    1
    19    21    22   ar
    20    22    23   ar
    21    23    27    1
    22    27    28   ar
    23    28    29   ar
    24    29    30   ar
    25    30    31   ar
    26    31    32   ar
    27    23    24   ar
    28    24    25   ar
    29    12    13    1
    30     9     1    1
    31    20    15    1
    32    25    21   ar
    33     8     4    1
    34    32    27   ar
    35    13     5    1
    36    11    14    1
    37    25    26    1
@<TRIPOS>MOLECULE
*****
 32 37 0 0 0
SMALL
GASTEIGER

@<TRIPOS>ATOM
      1 C         139.5466  143.7241  165.9430 C.2     1  UNL1       -0.0198
      2 C         138.9601  144.8538  165.1496 C.2     1  UNL1       -0.0042
      3 C         139.0983  144.8724  163.6561 C.2     1  UNL1        0.0006
      4 C         139.8230  143.7613  162.9560 C.2     1  UNL1        0.0111
      5 C         140.1156  143.5105  161.5064 C.2     1  UNL1       -0.0044
      6 C         140.8830  142.2257  161.4039 C.2     1  UNL1        0.0689
      7 N         141.0646  141.6824  162.7902 N.2     1  UNL1       -0.2526
      8 C         140.4095  142.6315  163.7495 C.2     1  UNL1        0.0627
      9 C         140.2713  142.6129  165.2430 C.3     1  UNL1        0.0717
     10 C         141.3172  141.7165  160.0615 C.3     1  UNL1        0.0949
     11 N         140.9840  142.4921  158.8214 N.3     1  UNL1       -0.2887
     12 C         140.2166  143.7769  158.9239 C.3     1  UNL1        0.1161
     13 C         139.7825  144.2861  160.2665 C.3     1  UNL1        0.0510
     14 H         140.4396  141.8709  158.2230 H       1  UNL1        0.1239
     15 C         142.0845  140.4318  159.9590 C.3     1  UNL1        0.0252
     16 C         143.3255  140.2320  160.7775 C.3     1  UNL1        0.0339
     17 C         144.0929  138.9473  160.6750 C.3     1  UNL1        0.1422
     18 O         143.6192  137.8622  159.7540 O.3     1  UNL1       -0.3538
     19 C         142.3782  138.0619  158.9355 C.3     1  UNL1        0.1422
     20 C         141.6108  139.3467  159.0380 C.3     1  UNL1        0.0339
     21 C         139.8835  144.5524  157.6840 C.ar    1  UNL1        0.1318
     22 N         139.9230  146.0450  157.5403 N.ar    1  UNL1       -0.2298
     23 C         139.5162  146.3866  156.1375 C.ar    1  UNL1        0.0997
     24 C         139.2253  145.1051  155.4142 C.ar    1  UNL1        0.0927
     25 N         139.4522  143.9716  156.3700 N.ar    1  UNL1       -0.3386
     26 H         139.3382  143.0144  156.1699 H       1  UNL1        0.1672
     27 C         139.4177  147.7673  155.5596 C.ar    1  UNL1        0.0223
     28 C         140.0643  148.0767  154.2420 C.ar    1  UNL1        0.0222
     29 C         139.9658  149.4573  153.6640 C.ar    1  UNL1        0.0989
     30 N         139.2206  150.5286  154.4036 N.ar    1  UNL1       -0.2423
     31 C         138.5739  150.2192  155.7213 C.ar    1  UNL1        0.0989
     32 C         138.6725  148.8385  156.2992 C.ar    1  UNL1        0.0222
@<TRIPOS>BOND
     1     1     2    2
     2     2     3    1
     3     3     4    2
     4     4     5    1
     5     5     6    2
     6     6     7    1
     7     7     8    2
     8     8     9    1
     9     6    10    1
    10    10    15    1
    11    15    16    1
    12    16    17    1
    13    17    18    1
    14    18    19    1
    15    19    20    1
    16    10    11    1
    17    11    12    1
    18    12    21    1
    19    21    22   ar
    20    22    23   ar
    21    23    27    1
    22    27    28   ar
    23    28    29   ar
    24    29    30   ar
    25    30    31   ar
    26    31    32   ar
    27    23    24   ar
    28    24    25   ar
    29    12    13    1
    30     9     1    1
    31    20    15    1
    32    25    21   ar
    33     8     4    1
    34    32    27   ar
    35    13     5    1
    36    11    14    1
    37    25    26    1
@<TRIPOS>MOLECULE
*****
 32 37 0 0 0
SMALL
GASTEIGER

@<TRIPOS>ATOM
      1 C         140.6203  145.7176  157.8631 C.2     1  UNL1       -0.0198
      2 C         140.2235  144.7698  156.7703 C.2     1  UNL1       -0.0042
      3 C         140.6237  143.3263  156.8475 C.2     1  UNL1        0.0006
      4 C         141.4207  142.8304  158.0175 C.2     1  UNL1        0.0111
      5 C         141.9555  141.4727  158.3646 C.2     1  UNL1       -0.0044
      6 C         142.6828  141.5813  159.6720 C.2     1  UNL1        0.0689
      7 N         142.5975  143.0062  160.1329 N.2     1  UNL1       -0.2526
      8 C         141.8175  143.7782  159.1103 C.2     1  UNL1        0.0627
      9 C         141.4173  145.2218  159.0331 C.3     1  UNL1        0.0717
     10 C         143.3287  140.3687  160.2739 C.3     1  UNL1        0.0949
     11 N         143.2474  139.0474  159.5684 N.3     1  UNL1       -0.2887
     12 C         142.5201  138.9388  158.2610 C.3     1  UNL1        0.1161
     13 C         141.8741  140.1515  157.6591 C.3     1  UNL1        0.0510
     14 H         142.7954  138.3975  160.2117 H       1  UNL1        0.1239
     15 C         144.0560  140.4773  161.5812 C.3     1  UNL1        0.0252
     16 C         144.8903  141.6882  161.8770 C.3     1  UNL1        0.0339
     17 C         145.6176  141.7969  163.1844 C.3     1  UNL1        0.1422
     18 O         145.5106  140.6945  164.1960 O.3     1  UNL1       -0.3538
     19 C         144.6763  139.4835  163.9002 C.3     1  UNL1        0.1422
     20 C         143.9490  139.3749  162.5928 C.3     1  UNL1        0.0339
     21 C         142.4387  137.6175  157.5555 C.ar    1  UNL1        0.1318
     22 N         143.3589  136.4507  157.7599 N.ar    1  UNL1       -0.2298
     23 C         142.9117  135.3432  156.8525 C.ar    1  UNL1        0.0997
     24 C         141.7151  135.8256  156.0872 C.ar    1  UNL1        0.0927
     25 N         141.4228  137.2312  156.5217 N.ar    1  UNL1       -0.3386
     26 H         140.6925  137.8002  156.1871 H       1  UNL1        0.1672
     27 C         143.5492  133.9908  156.7315 C.ar    1  UNL1        0.0223
     28 C         144.3533  133.4362  157.8698 C.ar    1  UNL1        0.0222
     29 C         144.9907  132.0839  157.7489 C.ar    1  UNL1        0.0989
     30 N         144.8242  131.2860  156.4897 N.ar    1  UNL1       -0.2423
     31 C         144.0200  131.8407  155.3513 C.ar    1  UNL1        0.0989
     32 C         143.3826  133.1931  155.4722 C.ar    1  UNL1        0.0222
@<TRIPOS>BOND
     1     1     2    2
     2     2     3    1
     3     3     4    2
     4     4     5    1
     5     5     6    2
     6     6     7    1
     7     7     8    2
     8     8     9    1
     9     6    10    1
    10    10    15    1
    11    15    16    1
    12    16    17    1
    13    17    18    1
    14    18    19    1
    15    19    20    1
    16    10    11    1
    17    11    12    1
    18    12    21    1
    19    21    22   ar
    20    22    23   ar
    21    23    27    1
    22    27    28   ar
    23    28    29   ar
    24    29    30   ar
    25    30    31   ar
    26    31    32   ar
    27    23    24   ar
    28    24    25   ar
    29    12    13    1
    30     9     1    1
    31    20    15    1
    32    25    21   ar
    33     8     4    1
    34    32    27   ar
    35    13     5    1
    36    11    14    1
    37    25    26    1
@<TRIPOS>MOLECULE
*****
 32 37 0 0 0
SMALL
GASTEIGER

@<TRIPOS>ATOM
      1 C         142.0727  140.6504  169.3382 C.2     1  UNL1       -0.0198
      2 C         142.6919  139.4254  168.7332 C.2     1  UNL1       -0.0042
      3 C         142.6653  139.2278  167.2466 C.2     1  UNL1        0.0006
      4 C         142.0195  140.2551  166.3648 C.2     1  UNL1        0.0111
      5 C         141.8416  140.3321  164.8774 C.2     1  UNL1       -0.0044
      6 C         141.1124  141.6048  164.5631 C.2     1  UNL1        0.0689
      7 N         140.8396  142.3142  165.8562 N.2     1  UNL1       -0.2526
      8 C         141.4003  141.4800  166.9698 C.2     1  UNL1        0.0627
      9 C         141.4269  141.6777  168.4565 C.3     1  UNL1        0.0717
     10 C         140.7910  141.9531  163.1399 C.3     1  UNL1        0.0949
     11 N         141.1988  141.0288  162.0311 N.3     1  UNL1       -0.2887
     12 C         141.9280  139.7562  162.3454 C.3     1  UNL1        0.1161
     13 C         142.2493  139.4079  163.7686 C.3     1  UNL1        0.0510
     14 H         141.7999  141.5659  161.4061 H       1  UNL1        0.1239
     15 C         140.0619  143.2256  162.8256 C.3     1  UNL1        0.0252
     16 C         138.6030  143.3538  163.1497 C.3     1  UNL1        0.0339
     17 C         137.8738  144.6264  162.8354 C.3     1  UNL1        0.1422
     18 O         138.6036  145.7709  162.1969 O.3     1  UNL1       -0.3538
     19 C         140.0625  145.6427  161.8728 C.3     1  UNL1        0.1422
     20 C         140.7917  144.3701  162.1871 C.3     1  UNL1        0.0339
     21 C         142.3357  138.8319  161.2366 C.ar    1  UNL1        0.1318
     22 N         142.1234  139.0664  159.7703 N.ar    1  UNL1       -0.2298
     23 C         142.6839  137.8902  159.0270 C.ar    1  UNL1        0.0997
     24 C         143.2426  136.9289  160.0338 C.ar    1  UNL1        0.0927
     25 N         143.0274  137.5109  161.3994 N.ar    1  UNL1       -0.3386
     26 H         143.2935  137.0983  162.2528 H       1  UNL1        0.1672
     27 C         142.6854  137.7075  157.5381 C.ar    1  UNL1        0.0223
     28 C         142.2943  138.8454  156.6425 C.ar    1  UNL1        0.0222
     29 C         142.2958  138.6627  155.1537 C.ar    1  UNL1        0.0989
     30 N         142.6884  137.3422  154.5604 N.ar    1  UNL1       -0.2423
     31 C         143.0796  136.2042  155.4561 C.ar    1  UNL1        0.0989
     32 C         143.0781  136.3869  156.9450 C.ar    1  UNL1        0.0222
@<TRIPOS>BOND
     1     1     2    2
     2     2     3    1
     3     3     4    2
     4     4     5    1
     5     5     6    2
     6     6     7    1
     7     7     8    2
     8     8     9    1
     9     6    10    1
    10    10    15    1
    11    15    16    1
    12    16    17    1
    13    17    18    1
    14    18    19    1
    15    19    20    1
    16    10    11    1
    17    11    12    1
    18    12    21    1
    19    21    22   ar
    20    22    23   ar
    21    23    27    1
    22    27    28   ar
    23    28    29   ar
    24    29    30   ar
    25    30    31   ar
    26    31    32   ar
    27    23    24   ar
    28    24    25   ar
    29    12    13    1
    30     9     1    1
    31    20    15    1
    32    25    21   ar
    33     8     4    1
    34    32    27   ar
    35    13     5    1
    36    11    14    1
    37    25    26    1
@<TRIPOS>MOLECULE
*****
 32 37 0 0 0
SMALL
GASTEIGER

@<TRIPOS>ATOM
      1 C         142.9092  139.0970  167.2215 C.2     1  UNL1       -0.0198
      2 C         143.7626  138.3324  166.2536 C.2     1  UNL1       -0.0042
      3 C         143.7770  138.7136  164.8029 C.2     1  UNL1        0.0006
      4 C         142.9381  139.8595  164.3201 C.2     1  UNL1        0.0111
      5 C         142.7491  140.4617  162.9594 C.2     1  UNL1       -0.0044
      6 C         141.7788  141.5986  163.0864 C.2     1  UNL1        0.0689
      7 N         141.3682  141.6990  164.5256 N.2     1  UNL1       -0.2526
      8 C         142.0847  140.6241  165.2881 C.2     1  UNL1        0.0627
      9 C         142.0702  140.2429  166.7388 C.3     1  UNL1        0.0717
     10 C         141.3946  142.3956  161.8751 C.3     1  UNL1        0.0949
     11 N         141.9807  142.0556  160.5367 N.3     1  UNL1       -0.2887
     12 C         142.9509  140.9187  160.4098 C.3     1  UNL1        0.1161
     13 C         143.3351  140.1217  161.6212 C.3     1  UNL1        0.0510
     14 H         142.4617  142.8916  160.2050 H       1  UNL1        0.1239
     15 C         140.4245  143.5324  162.0020 C.3     1  UNL1        0.0252
     16 C         139.0517  143.2887  162.5553 C.3     1  UNL1        0.0339
     17 C         138.0815  144.4256  162.6823 C.3     1  UNL1        0.1422
     18 O         138.4840  145.8062  162.2559 O.3     1  UNL1       -0.3538
     19 C         139.8567  146.0499  161.7026 C.3     1  UNL1        0.1422
     20 C         140.8270  144.9130  161.5757 C.3     1  UNL1        0.0339
     21 C         143.5370  140.5787  159.0715 C.ar    1  UNL1        0.1318
     22 N         144.5100  141.4168  158.2965 N.ar    1  UNL1       -0.2298
     23 C         144.8273  140.6969  157.0193 C.ar    1  UNL1        0.0997
     24 C         144.0503  139.4139  157.0050 C.ar    1  UNL1        0.0927
     25 N         143.2528  139.3409  158.2733 N.ar    1  UNL1       -0.3386
     26 H         142.6489  138.6090  158.5358 H       1  UNL1        0.1672
     27 C         145.7581  141.1760  155.9450 C.ar    1  UNL1        0.0223
     28 C         146.8678  142.1268  156.2833 C.ar    1  UNL1        0.0222
     29 C         147.7986  142.6058  155.2091 C.ar    1  UNL1        0.0989
     30 N         147.6198  142.1342  153.7965 N.ar    1  UNL1       -0.2423
     31 C         146.5100  141.1833  153.4581 C.ar    1  UNL1        0.0989
     32 C         145.5792  140.7042  154.5324 C.ar    1  UNL1        0.0222
@<TRIPOS>BOND
     1     1     2    2
     2     2     3    1
     3     3     4    2
     4     4     5    1
     5     5     6    2
     6     6     7    1
     7     7     8    2
     8     8     9    1
     9     6    10    1
    10    10    15    1
    11    15    16    1
    12    16    17    1
    13    17    18    1
    14    18    19    1
    15    19    20    1
    16    10    11    1
    17    11    12    1
    18    12    21    1
    19    21    22   ar
    20    22    23   ar
    21    23    27    1
    22    27    28   ar
    23    28    29   ar
    24    29    30   ar
    25    30    31   ar
    26    31    32   ar
    27    23    24   ar
    28    24    25   ar
    29    12    13    1
    30     9     1    1
    31    20    15    1
    32    25    21   ar
    33     8     4    1
    34    32    27   ar
    35    13     5    1
    36    11    14    1
    37    25    26    1
@<TRIPOS>MOLECULE
*****
 32 37 0 0 0
SMALL
GASTEIGER

@<TRIPOS>ATOM
      1 C         139.7540  147.7091  154.4318 C.2     1  UNL1       -0.0198
      2 C         139.0257  148.1326  155.6728 C.2     1  UNL1       -0.0042
      3 C         139.2368  147.3875  156.9574 C.2     1  UNL1        0.0006
      4 C         140.1763  146.2190  157.0010 C.2     1  UNL1        0.0111
      5 C         140.5831  145.2991  158.1138 C.2     1  UNL1       -0.0044
      6 C         141.5628  144.3071  157.5606 C.2     1  UNL1        0.0689
      7 N         141.7615  144.6139  156.1058 N.2     1  UNL1       -0.2526
      8 C         140.9046  145.7956  155.7600 C.2     1  UNL1        0.0627
      9 C         140.6934  146.5406  154.4754 C.3     1  UNL1        0.0717
     10 C         142.1473  143.2526  158.4529 C.3     1  UNL1        0.0949
     11 N         141.7522  143.1901  159.8987 N.3     1  UNL1       -0.2887
     12 C         140.7725  144.1821  160.4520 C.3     1  UNL1        0.1161
     13 C         140.1879  145.2367  159.5595 C.3     1  UNL1        0.0510
     14 H         142.6094  143.2880  160.4427 H       1  UNL1        0.1239
     15 C         143.1270  142.2607  157.8997 C.3     1  UNL1        0.0252
     16 C         144.5655  142.6467  157.7215 C.3     1  UNL1        0.0339
     17 C         145.5452  141.6547  157.1682 C.3     1  UNL1        0.1422
     18 O         145.0864  140.2767  156.7931 O.3     1  UNL1       -0.3538
     19 C         143.6479  139.8907  156.9713 C.3     1  UNL1        0.1422
     20 C         142.6682  140.8827  157.5246 C.3     1  UNL1        0.0339
     21 C         140.3773  144.1197  161.8976 C.ar    1  UNL1        0.1318
     22 N         140.4923  142.9210  162.7921 N.ar    1  UNL1       -0.2298
     23 C         139.9838  143.3055  164.1499 C.ar    1  UNL1        0.0997
     24 C         139.5545  144.7417  164.0946 C.ar    1  UNL1        0.0927
     25 N         139.7977  145.2448  162.7026 N.ar    1  UNL1       -0.3386
     26 H         139.6099  146.1540  162.3749 H       1  UNL1        0.1672
     27 C         139.9164  142.4108  165.3520 C.ar    1  UNL1        0.0223
     28 C         139.3050  141.0458  165.2376 C.ar    1  UNL1        0.0222
     29 C         139.2376  140.1512  166.4396 C.ar    1  UNL1        0.0989
     30 N         139.7816  140.6212  167.7561 N.ar    1  UNL1       -0.2423
     31 C         140.3931  141.9863  167.8704 C.ar    1  UNL1        0.0989
     32 C         140.4605  142.8810  166.6684 C.ar    1  UNL1        0.0222
@<TRIPOS>BOND
     1     1     2    2
     2     2     3    1
     3     3     4    2
     4     4     5    1
     5     5     6    2
     6     6     7    1
     7     7     8    2
     8     8     9    1
     9     6    10    1
    10    10    15    1
    11    15    16    1
    12    16    17    1
    13    17    18    1
    14    18    19    1
    15    19    20    1
    16    10    11    1
    17    11    12    1
    18    12    21    1
    19    21    22   ar
    20    22    23   ar
    21    23    27    1
    22    27    28   ar
    23    28    29   ar
    24    29    30   ar
    25    30    31   ar
    26    31    32   ar
    27    23    24   ar
    28    24    25   ar
    29    12    13    1
    30     9     1    1
    31    20    15    1
    32    25    21   ar
    33     8     4    1
    34    32    27   ar
    35    13     5    1
    36    11    14    1
    37    25    26    1
