@<TRIPOS>MOLECULE
*****
 32 34 0 0 0
SMALL
GASTEIGER

@<TRIPOS>ATOM
      1 C         141.9180  140.3452  165.7837 C.3     1  UNL1        0.0750
      2 C         141.9233  141.1032  164.4894 C.3     1  UNL1        0.0412
      3 C         141.0237  140.6773  163.3672 C.3     1  UNL1        0.0984
      4 N         140.1187  139.4935  163.5394 N.am    1  UNL1       -0.2459
      5 C         139.2191  139.0676  162.4172 C.2     1  UNL1        0.4052
      6 O         138.3142  137.8838  162.5894 O.2     1  UNL1       -0.2262
      7 C         140.1134  138.7355  164.8338 C.3     1  UNL1        0.0984
      8 C         141.0130  139.1614  165.9559 C.3     1  UNL1        0.0412
      9 O         141.0988  142.5947  167.5918 O.2     1  UNL1       -0.2751
     10 C         142.4080  141.8958  167.8100 C.2     1  UNL1        0.2224
     11 N         142.8176  140.7711  166.9060 N.am    1  UNL1       -0.3058
     12 H         143.6769  140.3124  167.0492 H       1  UNL1        0.1494
     13 C         143.3077  142.3217  168.9322 C.3     1  UNL1        0.0851
     14 C         142.7230  142.9285  170.1732 C.3     1  UNL1        0.0100
     15 C         142.0396  142.0563  171.1842 C.3     1  UNL1        0.0068
     16 C         141.7027  140.6349  170.8430 C.3     1  UNL1        0.0469
     17 C         140.2703  140.1909  170.8099 C.ar    1  UNL1        0.0740
     18 C         139.1933  140.7525  169.9297 C.ar    1  UNL1        0.1378
     19 N         137.9208  140.0160  170.2269 N.ar    1  UNL1       -0.1277
     20 N         138.2114  138.9991  171.2908 N.ar    1  UNL1       -0.0675
     21 N         139.6635  139.1073  171.6510 N.ar    1  UNL1       -0.2605
     22 H         140.1354  138.5627  172.3218 H       1  UNL1        0.1903
     23 O         139.2244  139.8256  161.1228 O.3     1  UNL1       -0.4295
     24 C         138.2583  140.9532  160.9099 C.3     1  UNL1        0.2368
     25 C         138.5214  142.2934  161.5301 C.ar    1  UNL1        0.0230
     26 C         139.4039  143.2837  160.8298 C.ar    1  UNL1        0.0108
     27 C         139.6669  144.6239  161.4500 C.ar    1  UNL1        0.0583
     28 CL        140.5494  145.6142  160.7496 Cl      1  UNL1       -0.0822
     29 C         139.0475  144.9737  162.7706 C.ar    1  UNL1        0.0228
     30 C         138.1651  143.9834  163.4710 C.ar    1  UNL1        0.0583
     31 CL        137.5457  144.3332  164.7916 Cl      1  UNL1       -0.0822
     32 C         137.9020  142.6432  162.8507 C.ar    1  UNL1        0.0108
@<TRIPOS>BOND
     1     9    10    2
     2    10    13    1
     3    13    14    1
     4    14    15    1
     5    15    16    1
     6    16    17    1
     7    17    18   ar
     8    18    19   ar
     9    19    20   ar
    10    20    21   ar
    11    10    11   am
    12    11     1    1
    13     1     2    1
    14     2     3    1
    15     3     4    1
    16     4     5   am
    17     5     6    2
    18     5    23    1
    19    23    24    1
    20    24    25    1
    21    25    26   ar
    22    26    27   ar
    23    27    28    1
    24    27    29   ar
    25    29    30   ar
    26    30    31    1
    27    30    32   ar
    28     4     7    1
    29     7     8    1
    30    21    17   ar
    31     8     1    1
    32    32    25   ar
    33    21    22    1
    34    11    12    1
@<TRIPOS>MOLECULE
*****
 32 34 0 0 0
SMALL
GASTEIGER

@<TRIPOS>ATOM
      1 C         139.8115  140.2224  166.1855 C.3     1  UNL1        0.0750
      2 C         140.8548  139.2395  165.7435 C.3     1  UNL1        0.0412
      3 C         140.8147  138.6776  164.3533 C.3     1  UNL1        0.0984
      4 N         139.7313  139.0986  163.4052 N.am    1  UNL1       -0.2459
      5 C         139.6913  138.5367  162.0149 C.2     1  UNL1        0.4052
      6 O         138.6079  138.9577  161.0667 O.2     1  UNL1       -0.2262
      7 C         138.6880  140.0815  163.8472 C.3     1  UNL1        0.0984
      8 C         138.7281  140.6434  165.2373 C.3     1  UNL1        0.0412
      9 O         138.1382  138.9912  168.3499 O.2     1  UNL1       -0.2751
     10 C         139.0149  140.1688  168.6579 C.2     1  UNL1        0.2224
     11 N         139.8515  140.7843  167.5757 N.am    1  UNL1       -0.3058
     12 H         140.4269  141.5572  167.7779 H       1  UNL1        0.1494
     13 C         139.0549  140.7307  170.0481 C.3     1  UNL1        0.0851
     14 C         139.7714  142.0211  170.3151 C.3     1  UNL1        0.0100
     15 C         141.1076  142.0100  170.9965 C.3     1  UNL1        0.0068
     16 C         142.3312  141.5826  170.2413 C.3     1  UNL1        0.0469
     17 C         142.8304  140.1729  170.3581 C.ar    1  UNL1        0.0740
     18 C         142.4386  139.0230  169.4783 C.ar    1  UNL1        0.1378
     19 N         143.1752  137.8051  169.9518 N.ar    1  UNL1       -0.1277
     20 N         144.0222  138.2024  171.1243 N.ar    1  UNL1       -0.0675
     21 N         143.8091  139.6658  171.3754 N.ar    1  UNL1       -0.2605
     22 H         144.2366  140.1996  172.0836 H       1  UNL1        0.1903
     23 O         140.7346  137.5538  161.5729 O.3     1  UNL1       -0.4295
     24 C         141.8858  138.0115  160.7272 C.3     1  UNL1        0.2368
     25 C         142.8599  139.0165  161.2667 C.ar    1  UNL1        0.0230
     26 C         143.5631  138.7568  162.5660 C.ar    1  UNL1        0.0108
     27 C         144.5371  139.7618  163.1055 C.ar    1  UNL1        0.0583
     28 CL        145.2404  139.5021  164.4047 Cl      1  UNL1       -0.0822
     29 C         144.8080  141.0266  162.3458 C.ar    1  UNL1        0.0228
     30 C         144.1048  141.2863  161.0466 C.ar    1  UNL1        0.0583
     31 CL        144.3756  142.5509  160.2869 Cl      1  UNL1       -0.0822
     32 C         143.1307  140.2812  160.5070 C.ar    1  UNL1        0.0108
@<TRIPOS>BOND
     1     9    10    2
     2    10    13    1
     3    13    14    1
     4    14    15    1
     5    15    16    1
     6    16    17    1
     7    17    18   ar
     8    18    19   ar
     9    19    20   ar
    10    20    21   ar
    11    10    11   am
    12    11     1    1
    13     1     2    1
    14     2     3    1
    15     3     4    1
    16     4     5   am
    17     5     6    2
    18     5    23    1
    19    23    24    1
    20    24    25    1
    21    25    26   ar
    22    26    27   ar
    23    27    28    1
    24    27    29   ar
    25    29    30   ar
    26    30    31    1
    27    30    32   ar
    28     4     7    1
    29     7     8    1
    30    21    17   ar
    31     8     1    1
    32    32    25   ar
    33    21    22    1
    34    11    12    1
@<TRIPOS>MOLECULE
*****
 32 34 0 0 0
SMALL
GASTEIGER

@<TRIPOS>ATOM
      1 C         139.6079  139.7980  166.3393 C.3     1  UNL1        0.0750
      2 C         140.8733  139.1216  165.9021 C.3     1  UNL1        0.0412
      3 C         140.9648  138.5141  164.5338 C.3     1  UNL1        0.0984
      4 N         139.7909  138.5829  163.6025 N.am    1  UNL1       -0.2459
      5 C         139.8824  137.9753  162.2341 C.2     1  UNL1        0.4052
      6 O         138.7085  138.0442  161.3029 O.2     1  UNL1       -0.2262
      7 C         138.5254  139.2594  164.0397 C.3     1  UNL1        0.0984
      8 C         138.4340  139.8669  165.4081 C.3     1  UNL1        0.0412
      9 O         140.6770  142.5578  166.8298 O.2     1  UNL1       -0.2751
     10 C         140.0509  141.7855  167.9529 C.2     1  UNL1        0.2224
     11 N         139.5163  140.4056  167.7077 N.am    1  UNL1       -0.3058
     12 H         139.1054  139.8987  168.4449 H       1  UNL1        0.1494
     13 C         139.9594  142.3931  169.3214 C.3     1  UNL1        0.0851
     14 C         140.8649  143.5272  169.7005 C.3     1  UNL1        0.0100
     15 C         142.1768  143.2472  170.3717 C.3     1  UNL1        0.0068
     16 C         143.2347  142.4632  169.6530 C.3     1  UNL1        0.0469
     17 C         143.1329  140.9692  169.5675 C.ar    1  UNL1        0.0740
     18 C         142.9498  140.0303  170.7229 C.ar    1  UNL1        0.1378
     19 N         142.9001  138.6325  170.1810 N.ar    1  UNL1       -0.1277
     20 N         143.0526  138.7075  168.6906 N.ar    1  UNL1       -0.0675
     21 N         143.1965  140.1517  168.3115 N.ar    1  UNL1       -0.2605
     22 H         143.3123  140.5015  167.3985 H       1  UNL1        0.1903
     23 O         141.1478  137.2989  161.7970 O.3     1  UNL1       -0.4295
     24 C         142.1353  138.0359  160.9414 C.3     1  UNL1        0.2368
     25 C         142.6687  139.3651  161.3871 C.ar    1  UNL1        0.0230
     26 C         142.0492  140.6317  160.8754 C.ar    1  UNL1        0.0108
     27 C         142.5826  141.9609  161.3211 C.ar    1  UNL1        0.0583
     28 CL        141.9631  143.2275  160.8094 Cl      1  UNL1       -0.0822
     29 C         143.7357  142.0235  162.2785 C.ar    1  UNL1        0.0228
     30 C         144.3553  140.7568  162.7902 C.ar    1  UNL1        0.0583
     31 CL        145.5083  140.8194  163.7475 Cl      1  UNL1       -0.0822
     32 C         143.8218  139.4276  162.3444 C.ar    1  UNL1        0.0108
@<TRIPOS>BOND
     1     9    10    2
     2    10    13    1
     3    13    14    1
     4    14    15    1
     5    15    16    1
     6    16    17    1
     7    17    18   ar
     8    18    19   ar
     9    19    20   ar
    10    20    21   ar
    11    10    11   am
    12    11     1    1
    13     1     2    1
    14     2     3    1
    15     3     4    1
    16     4     5   am
    17     5     6    2
    18     5    23    1
    19    23    24    1
    20    24    25    1
    21    25    26   ar
    22    26    27   ar
    23    27    28    1
    24    27    29   ar
    25    29    30   ar
    26    30    31    1
    27    30    32   ar
    28     4     7    1
    29     7     8    1
    30    21    17   ar
    31     8     1    1
    32    32    25   ar
    33    21    22    1
    34    11    12    1
@<TRIPOS>MOLECULE
*****
 32 34 0 0 0
SMALL
GASTEIGER

@<TRIPOS>ATOM
      1 C         141.7667  138.0309  163.1004 C.3     1  UNL1        0.0750
      2 C         142.8482  137.9375  162.0652 C.3     1  UNL1        0.0412
      3 C         142.5052  138.0542  160.6097 C.3     1  UNL1        0.0984
      4 N         141.0807  138.2643  160.1893 N.am    1  UNL1       -0.2459
      5 C         140.7377  138.3810  158.7337 C.2     1  UNL1        0.4052
      6 O         139.3132  138.5912  158.3133 O.2     1  UNL1       -0.2262
      7 C         139.9992  138.3577  161.2245 C.3     1  UNL1        0.0984
      8 C         140.3422  138.2410  162.6800 C.3     1  UNL1        0.0412
      9 O         143.0419  140.3390  164.5309 O.2     1  UNL1       -0.2751
     10 C         142.7473  139.0682  165.2712 C.2     1  UNL1        0.2224
     11 N         142.1097  137.9141  164.5560 N.am    1  UNL1       -0.3058
     12 H         141.9163  137.0800  165.0420 H       1  UNL1        0.1494
     13 C         143.0902  138.9515  166.7269 C.3     1  UNL1        0.0851
     14 C         142.4090  139.8333  167.7310 C.3     1  UNL1        0.0100
     15 C         141.0070  140.3061  167.4848 C.3     1  UNL1        0.0068
     16 C         140.0386  140.4083  168.6259 C.3     1  UNL1        0.0469
     17 C         139.9336  141.6836  169.4085 C.ar    1  UNL1        0.0740
     18 C         140.5659  142.9948  169.0466 C.ar    1  UNL1        0.1378
     19 N         140.2009  143.9932  170.1049 N.ar    1  UNL1       -0.1277
     20 N         139.3429  143.2990  171.1208 N.ar    1  UNL1       -0.0675
     21 N         139.1777  141.8716  170.6904 N.ar    1  UNL1       -0.2605
     22 H         138.6635  141.1797  171.1658 H       1  UNL1        0.1903
     23 O         141.8192  138.2876  157.6985 O.3     1  UNL1       -0.4295
     24 C         141.5779  137.5271  156.4282 C.3     1  UNL1        0.2368
     25 C         141.9653  136.0811  156.3347 C.ar    1  UNL1        0.0230
     26 C         142.9948  135.5185  157.2694 C.ar    1  UNL1        0.0108
     27 C         143.3822  134.0724  157.1759 C.ar    1  UNL1        0.0583
     28 CL        144.4117  133.5098  158.1106 Cl      1  UNL1       -0.0822
     29 C         142.7403  133.1889  156.1476 C.ar    1  UNL1        0.0228
     30 C         141.7108  133.7515  155.2128 C.ar    1  UNL1        0.0583
     31 CL        141.0688  132.8681  154.1846 Cl      1  UNL1       -0.0822
     32 C         141.3234  135.1977  155.3064 C.ar    1  UNL1        0.0108
@<TRIPOS>BOND
     1     9    10    2
     2    10    13    1
     3    13    14    1
     4    14    15    1
     5    15    16    1
     6    16    17    1
     7    17    18   ar
     8    18    19   ar
     9    19    20   ar
    10    20    21   ar
    11    10    11   am
    12    11     1    1
    13     1     2    1
    14     2     3    1
    15     3     4    1
    16     4     5   am
    17     5     6    2
    18     5    23    1
    19    23    24    1
    20    24    25    1
    21    25    26   ar
    22    26    27   ar
    23    27    28    1
    24    27    29   ar
    25    29    30   ar
    26    30    31    1
    27    30    32   ar
    28     4     7    1
    29     7     8    1
    30    21    17   ar
    31     8     1    1
    32    32    25   ar
    33    21    22    1
    34    11    12    1
@<TRIPOS>MOLECULE
*****
 32 34 0 0 0
SMALL
GASTEIGER

@<TRIPOS>ATOM
      1 C         139.6716  141.7562  166.5497 C.3     1  UNL1        0.0750
      2 C         139.9411  143.2024  166.2568 C.3     1  UNL1        0.0412
      3 C         139.5181  143.7933  164.9445 C.3     1  UNL1        0.0984
      4 N         138.8257  142.9379  163.9253 N.am    1  UNL1       -0.2459
      5 C         138.4027  143.5288  162.6130 C.2     1  UNL1        0.4052
      6 O         137.7103  142.6735  161.5937 O.2     1  UNL1       -0.2262
      7 C         138.5562  141.4917  164.2182 C.3     1  UNL1        0.0984
      8 C         138.9792  140.9009  165.5304 C.3     1  UNL1        0.0412
      9 O         141.9604  139.8196  166.6546 O.2     1  UNL1       -0.2751
     10 C         141.2389  140.1970  167.9144 C.2     1  UNL1        0.2224
     11 N         140.0945  141.1653  167.8620 N.am    1  UNL1       -0.3058
     12 H         139.6210  141.4130  168.6888 H       1  UNL1        0.1494
     13 C         141.6619  139.6061  169.2267 C.3     1  UNL1        0.0851
     14 C         142.9288  138.8081  169.3163 C.3     1  UNL1        0.0100
     15 C         143.3316  138.1844  170.6196 C.3     1  UNL1        0.0068
     16 C         143.6849  136.7276  170.6765 C.3     1  UNL1        0.0469
     17 C         144.8661  136.2732  171.4816 C.ar    1  UNL1        0.0740
     18 C         144.9070  135.0814  172.3916 C.ar    1  UNL1        0.1378
     19 N         146.2800  135.0024  172.9904 N.ar    1  UNL1       -0.1277
     20 N         147.0876  136.1453  172.4505 N.ar    1  UNL1       -0.0675
     21 N         146.2138  136.9307  171.5180 N.ar    1  UNL1       -0.2605
     22 H         146.4783  137.7362  171.0177 H       1  UNL1        0.1903
     23 O         138.6722  144.9750  162.3201 O.3     1  UNL1       -0.4295
     24 C         139.8286  145.3604  161.4457 C.3     1  UNL1        0.2368
     25 C         141.2051  144.8514  161.7552 C.ar    1  UNL1        0.0230
     26 C         141.9072  145.2986  163.0030 C.ar    1  UNL1        0.0108
     27 C         143.2838  144.7896  163.3125 C.ar    1  UNL1        0.0583
     28 CL        143.9859  145.2369  164.5603 Cl      1  UNL1       -0.0822
     29 C         143.9584  143.8333  162.3741 C.ar    1  UNL1        0.0228
     30 C         143.2563  143.3860  161.1263 C.ar    1  UNL1        0.0583
     31 CL        143.9308  142.4297  160.1880 Cl      1  UNL1       -0.0822
     32 C         141.8797  143.8951  160.8169 C.ar    1  UNL1        0.0108
@<TRIPOS>BOND
     1     9    10    2
     2    10    13    1
     3    13    14    1
     4    14    15    1
     5    15    16    1
     6    16    17    1
     7    17    18   ar
     8    18    19   ar
     9    19    20   ar
    10    20    21   ar
    11    10    11   am
    12    11     1    1
    13     1     2    1
    14     2     3    1
    15     3     4    1
    16     4     5   am
    17     5     6    2
    18     5    23    1
    19    23    24    1
    20    24    25    1
    21    25    26   ar
    22    26    27   ar
    23    27    28    1
    24    27    29   ar
    25    29    30   ar
    26    30    31    1
    27    30    32   ar
    28     4     7    1
    29     7     8    1
    30    21    17   ar
    31     8     1    1
    32    32    25   ar
    33    21    22    1
    34    11    12    1
@<TRIPOS>MOLECULE
*****
 32 34 0 0 0
SMALL
GASTEIGER

@<TRIPOS>ATOM
      1 C         142.1582  144.3490  161.5434 C.3     1  UNL1        0.0750
      2 C         141.8349  144.8823  162.9076 C.3     1  UNL1        0.0412
      3 C         142.1326  144.0580  164.1250 C.3     1  UNL1        0.0984
      4 N         142.7534  142.7004  163.9781 N.am    1  UNL1       -0.2459
      5 C         143.0510  141.8761  165.1955 C.2     1  UNL1        0.4052
      6 O         143.6718  140.5185  165.0486 O.2     1  UNL1       -0.2262
      7 C         143.0766  142.1671  162.6139 C.3     1  UNL1        0.0984
      8 C         142.7790  142.9914  161.3966 C.3     1  UNL1        0.0412
      9 O         139.4610  144.1809  160.2406 O.2     1  UNL1       -0.2751
     10 C         140.5120  145.0893  159.6747 C.2     1  UNL1        0.2224
     11 N         141.8606  145.1733  160.3260 N.am    1  UNL1       -0.3058
     12 H         142.5503  145.7695  159.9545 H       1  UNL1        0.1494
     13 C         140.2144  145.9136  158.4572 C.3     1  UNL1        0.0851
     14 C         140.2834  145.2906  157.0945 C.3     1  UNL1        0.0100
     15 C         140.7662  146.0965  155.9251 C.3     1  UNL1        0.0068
     16 C         139.7813  146.8182  155.0537 C.3     1  UNL1        0.0469
     17 C         139.2725  148.1701  155.4576 C.ar    1  UNL1        0.0740
     18 C         139.3274  149.4174  154.6261 C.ar    1  UNL1        0.1378
     19 N         138.7082  150.5304  155.4184 N.ar    1  UNL1       -0.1277
     20 N         138.2705  149.9710  156.7396 N.ar    1  UNL1       -0.0675
     21 N         138.6193  148.5123  156.7638 N.ar    1  UNL1       -0.2605
     22 H         138.4493  147.8889  157.5066 H       1  UNL1        0.1903
     23 O         142.7278  142.4094  166.5597 O.3     1  UNL1       -0.4295
     24 C         141.4097  142.0859  167.1985 C.3     1  UNL1        0.2368
     25 C         140.3106  141.4737  166.3818 C.ar    1  UNL1        0.0230
     26 C         139.4265  142.3457  165.5404 C.ar    1  UNL1        0.0108
     27 C         138.3274  141.7335  164.7236 C.ar    1  UNL1        0.0583
     28 CL        137.4434  142.6055  163.8822 Cl      1  UNL1       -0.0822
     29 C         138.1123  140.2491  164.7483 C.ar    1  UNL1        0.0228
     30 C         138.9963  139.3771  165.5898 C.ar    1  UNL1        0.0583
     31 CL        138.7813  137.8928  165.6145 Cl      1  UNL1       -0.0822
     32 C         140.0955  139.9894  166.4065 C.ar    1  UNL1        0.0108
@<TRIPOS>BOND
     1     9    10    2
     2    10    13    1
     3    13    14    1
     4    14    15    1
     5    15    16    1
     6    16    17    1
     7    17    18   ar
     8    18    19   ar
     9    19    20   ar
    10    20    21   ar
    11    10    11   am
    12    11     1    1
    13     1     2    1
    14     2     3    1
    15     3     4    1
    16     4     5   am
    17     5     6    2
    18     5    23    1
    19    23    24    1
    20    24    25    1
    21    25    26   ar
    22    26    27   ar
    23    27    28    1
    24    27    29   ar
    25    29    30   ar
    26    30    31    1
    27    30    32   ar
    28     4     7    1
    29     7     8    1
    30    21    17   ar
    31     8     1    1
    32    32    25   ar
    33    21    22    1
    34    11    12    1
@<TRIPOS>MOLECULE
*****
 32 34 0 0 0
SMALL
GASTEIGER

@<TRIPOS>ATOM
      1 C         140.0227  138.1606  163.1993 C.3     1  UNL1        0.0750
      2 C         141.4805  138.5120  163.1636 C.3     1  UNL1        0.0412
      3 C         142.1739  138.7027  161.8473 C.3     1  UNL1        0.0984
      4 N         141.4095  138.5421  160.5667 N.am    1  UNL1       -0.2459
      5 C         142.1030  138.7329  159.2503 C.2     1  UNL1        0.4052
      6 O         141.3386  138.5723  157.9697 O.2     1  UNL1       -0.2262
      7 C         139.9517  138.1907  160.6024 C.3     1  UNL1        0.0984
      8 C         139.2583  137.9999  161.9187 C.3     1  UNL1        0.0412
      9 O         138.4305  140.4045  164.3951 O.2     1  UNL1       -0.2751
     10 C         138.5331  139.0917  165.1136 C.2     1  UNL1        0.2224
     11 N         139.3292  137.9698  164.5157 N.am    1  UNL1       -0.3058
     12 H         139.3965  137.1082  164.9872 H       1  UNL1        0.1494
     13 C         137.8396  138.9009  166.4299 C.3     1  UNL1        0.0851
     14 C         138.5109  139.3308  167.7005 C.3     1  UNL1        0.0100
     15 C         139.8982  139.8998  167.6604 C.3     1  UNL1        0.0068
     16 C         140.1522  141.2927  168.1558 C.3     1  UNL1        0.0469
     17 C         140.5354  141.5212  169.5879 C.ar    1  UNL1        0.0740
     18 C         141.5465  142.5126  170.0827 C.ar    1  UNL1        0.1378
     19 N         141.6108  142.4025  171.5772 N.ar    1  UNL1       -0.1277
     20 N         140.6394  141.3430  172.0062 N.ar    1  UNL1       -0.0675
     21 N         139.9748  140.7983  170.7767 N.ar    1  UNL1       -0.2605
     22 H         139.2908  140.0907  170.7540 H       1  UNL1        0.1903
     23 O         143.5608  139.0843  159.2146 O.3     1  UNL1       -0.4295
     24 C         143.9838  140.5153  159.0620 C.3     1  UNL1        0.2368
     25 C         143.8824  141.4556  160.2262 C.ar    1  UNL1        0.0230
     26 C         144.7725  141.2707  161.4193 C.ar    1  UNL1        0.0108
     27 C         144.6712  142.2110  162.5836 C.ar    1  UNL1        0.0583
     28 CL        145.5613  142.0261  163.7767 Cl      1  UNL1       -0.0822
     29 C         143.6797  143.3363  162.5548 C.ar    1  UNL1        0.0228
     30 C         142.7896  143.5212  161.3617 C.ar    1  UNL1        0.0583
     31 CL        141.7981  144.6464  161.3328 Cl      1  UNL1       -0.0822
     32 C         142.8910  142.5808  160.1974 C.ar    1  UNL1        0.0108
@<TRIPOS>BOND
     1     9    10    2
     2    10    13    1
     3    13    14    1
     4    14    15    1
     5    15    16    1
     6    16    17    1
     7    17    18   ar
     8    18    19   ar
     9    19    20   ar
    10    20    21   ar
    11    10    11   am
    12    11     1    1
    13     1     2    1
    14     2     3    1
    15     3     4    1
    16     4     5   am
    17     5     6    2
    18     5    23    1
    19    23    24    1
    20    24    25    1
    21    25    26   ar
    22    26    27   ar
    23    27    28    1
    24    27    29   ar
    25    29    30   ar
    26    30    31    1
    27    30    32   ar
    28     4     7    1
    29     7     8    1
    30    21    17   ar
    31     8     1    1
    32    32    25   ar
    33    21    22    1
    34    11    12    1
@<TRIPOS>MOLECULE
*****
 32 34 0 0 0
SMALL
GASTEIGER

@<TRIPOS>ATOM
      1 C         139.9738  139.0916  161.7311 C.3     1  UNL1        0.0750
      2 C         140.4383  140.4985  161.9652 C.3     1  UNL1        0.0412
      3 C         141.4379  141.1225  161.0371 C.3     1  UNL1        0.0984
      4 N         141.9731  140.3396  159.8749 N.am    1  UNL1       -0.2459
      5 C         142.9727  140.9636  158.9469 C.2     1  UNL1        0.4052
      6 O         143.5079  140.1807  157.7847 O.2     1  UNL1       -0.2262
      7 C         141.5086  138.9326  159.6408 C.3     1  UNL1        0.0984
      8 C         140.5090  138.3086  160.5689 C.3     1  UNL1        0.0412
      9 O         140.8630  138.0029  164.3814 O.2     1  UNL1       -0.2751
     10 C         139.4188  137.9232  163.9843 C.2     1  UNL1        0.2224
     11 N         138.9741  138.4675  162.6591 N.am    1  UNL1       -0.3058
     12 H         138.0262  138.4151  162.3985 H       1  UNL1        0.1494
     13 C         138.4191  137.2991  164.9124 C.3     1  UNL1        0.0851
     14 C         138.2062  137.8736  166.2815 C.3     1  UNL1        0.0100
     15 C         138.2029  139.3605  166.4787 C.3     1  UNL1        0.0068
     16 C         139.4133  140.0452  167.0410 C.3     1  UNL1        0.0469
     17 C         139.6619  140.0342  168.5201 C.ar    1  UNL1        0.0740
     18 C         140.9670  140.3318  169.1971 C.ar    1  UNL1        0.1378
     19 N         140.7608  140.2052  170.6775 N.ar    1  UNL1       -0.1277
     20 N         139.3282  139.8294  170.9154 N.ar    1  UNL1       -0.0675
     21 N         138.6491  139.7237  169.5821 N.ar    1  UNL1       -0.2605
     22 H         137.7045  139.4914  169.4306 H       1  UNL1        0.1903
     23 O         143.4372  142.3705  159.1810 O.3     1  UNL1       -0.4295
     24 C         144.6835  142.6265  159.9755 C.3     1  UNL1        0.2368
     25 C         144.6486  142.5439  161.4728 C.ar    1  UNL1        0.0230
     26 C         144.9427  141.2430  162.1592 C.ar    1  UNL1        0.0108
     27 C         144.9079  141.1604  163.6565 C.ar    1  UNL1        0.0583
     28 CL        145.2020  139.8595  164.3429 Cl      1  UNL1       -0.0822
     29 C         144.5789  142.3787  164.4674 C.ar    1  UNL1        0.0228
     30 C         144.2848  143.6796  163.7810 C.ar    1  UNL1        0.0583
     31 CL        143.9558  144.8979  164.5919 Cl      1  UNL1       -0.0822
     32 C         144.3197  143.7622  162.2836 C.ar    1  UNL1        0.0108
@<TRIPOS>BOND
     1     9    10    2
     2    10    13    1
     3    13    14    1
     4    14    15    1
     5    15    16    1
     6    16    17    1
     7    17    18   ar
     8    18    19   ar
     9    19    20   ar
    10    20    21   ar
    11    10    11   am
    12    11     1    1
    13     1     2    1
    14     2     3    1
    15     3     4    1
    16     4     5   am
    17     5     6    2
    18     5    23    1
    19    23    24    1
    20    24    25    1
    21    25    26   ar
    22    26    27   ar
    23    27    28    1
    24    27    29   ar
    25    29    30   ar
    26    30    31    1
    27    30    32   ar
    28     4     7    1
    29     7     8    1
    30    21    17   ar
    31     8     1    1
    32    32    25   ar
    33    21    22    1
    34    11    12    1
@<TRIPOS>MOLECULE
*****
 32 34 0 0 0
SMALL
GASTEIGER

@<TRIPOS>ATOM
      1 C         142.7781  139.3879  162.6280 C.3     1  UNL1        0.0750
      2 C         143.6278  138.2803  162.0793 C.3     1  UNL1        0.0412
      3 C         143.4432  137.8252  160.6620 C.3     1  UNL1        0.0984
      4 N         142.4088  138.4776  159.7935 N.am    1  UNL1       -0.2459
      5 C         142.2242  138.0223  158.3761 C.2     1  UNL1        0.4052
      6 O         141.1899  138.6747  157.5075 O.2     1  UNL1       -0.2262
      7 C         141.5591  139.5851  160.3421 C.3     1  UNL1        0.0984
      8 C         141.7437  140.0403  161.7594 C.3     1  UNL1        0.0412
      9 O         141.2685  138.0427  164.8442 O.2     1  UNL1       -0.2751
     10 C         142.2079  139.1705  165.1534 C.2     1  UNL1        0.2224
     11 N         142.9627  139.8431  164.0453 N.am    1  UNL1       -0.3058
     12 H         143.5792  140.5833  164.2482 H       1  UNL1        0.1494
     13 C         142.3925  139.6258  166.5707 C.3     1  UNL1        0.0851
     14 C         141.9754  141.0088  166.9746 C.3     1  UNL1        0.0100
     15 C         142.9214  141.8829  167.7435 C.3     1  UNL1        0.0068
     16 C         143.2409  141.5655  169.1743 C.3     1  UNL1        0.0469
     17 C         142.1559  141.5953  170.2095 C.ar    1  UNL1        0.0740
     18 C         141.1944  142.7219  170.4468 C.ar    1  UNL1        0.1378
     19 N         140.2860  142.3266  171.5732 N.ar    1  UNL1       -0.1277
     20 N         140.6862  140.9557  172.0320 N.ar    1  UNL1       -0.0675
     21 N         141.8418  140.5037  171.1892 N.ar    1  UNL1       -0.2605
     22 H         142.3117  139.6420  171.2656 H       1  UNL1        0.1903
     23 O         143.0740  136.9148  157.8274 O.3     1  UNL1       -0.4295
     24 C         142.6278  136.1595  156.6106 C.3     1  UNL1        0.2368
     25 C         142.7752  134.6677  156.5579 C.ar    1  UNL1        0.0230
     26 C         143.8795  133.9958  157.3188 C.ar    1  UNL1        0.0108
     27 C         144.0268  132.5040  157.2661 C.ar    1  UNL1        0.0583
     28 CL        145.1311  131.8321  158.0270 Cl      1  UNL1       -0.0822
     29 C         143.0698  131.6841  156.4524 C.ar    1  UNL1        0.0228
     30 C         141.9655  132.3560  155.6915 C.ar    1  UNL1        0.0583
     31 CL        141.0086  131.5362  154.8779 Cl      1  UNL1       -0.0822
     32 C         141.8182  133.8479  155.7442 C.ar    1  UNL1        0.0108
@<TRIPOS>BOND
     1     9    10    2
     2    10    13    1
     3    13    14    1
     4    14    15    1
     5    15    16    1
     6    16    17    1
     7    17    18   ar
     8    18    19   ar
     9    19    20   ar
    10    20    21   ar
    11    10    11   am
    12    11     1    1
    13     1     2    1
    14     2     3    1
    15     3     4    1
    16     4     5   am
    17     5     6    2
    18     5    23    1
    19    23    24    1
    20    24    25    1
    21    25    26   ar
    22    26    27   ar
    23    27    28    1
    24    27    29   ar
    25    29    30   ar
    26    30    31    1
    27    30    32   ar
    28     4     7    1
    29     7     8    1
    30    21    17   ar
    31     8     1    1
    32    32    25   ar
    33    21    22    1
    34    11    12    1
