@<TRIPOS>MOLECULE
*****
 37 39 0 0 0
SMALL
GASTEIGER

@<TRIPOS>ATOM
      1 N         143.7911  140.2584  161.5235 N.3     1  UNL1       -0.2664
      2 C         143.6678  138.9858  162.3078 C.3     1  UNL1        0.1058
      3 C         142.7861  137.8796  161.8087 C.3     1  UNL1        0.1700
      4 O         143.2402  137.0140  160.6709 O.3     1  UNL1       -0.3793
      5 H         144.1186  137.3015  160.3765 H       1  UNL1        0.2106
      6 C         141.4504  137.6390  162.4475 C.3     1  UNL1        0.2358
      7 O         141.3726  137.1807  163.8736 O.3     1  UNL1       -0.4728
      8 C         140.2898  140.1026  167.1201 C.ar    1  UNL1        0.0646
      9 C         139.2096  139.4198  166.3347 C.ar    1  UNL1        0.0190
     10 C         139.5705  138.4459  165.2525 C.ar    1  UNL1        0.0382
     11 C         141.0117  138.1547  164.9558 C.ar    1  UNL1        0.1388
     12 C         142.0919  138.8374  165.7412 C.ar    1  UNL1        0.0382
     13 C         141.7310  139.8114  166.8233 C.ar    1  UNL1        0.0190
     14 N         139.9288  141.0765  168.2023 N.pl3   1  UNL1       -0.2187
     15 H         139.3000  141.8104  168.0144 H       1  UNL1        0.1734
     16 C         141.1231  140.7883  170.9393 C.3     1  UNL1        0.1996
     17 S         140.5259  140.9324  169.5708 S.O2    1  UNL1        0.0558
     18 O         141.3164  142.1893  169.3582 O.2     1  UNL1       -0.1544
     19 O         139.7354  139.6755  169.7833 O.2     1  UNL1       -0.1544
     20 C         142.8762  140.5159  160.3631 C.3     1  UNL1        0.0771
     21 C         141.4276  140.8220  160.6036 C.3     1  UNL1        0.0437
     22 C         141.0356  141.8107  161.6614 C.ar    1  UNL1       -0.0199
     23 C         140.9083  141.3702  163.0896 C.ar    1  UNL1       -0.0033
     24 C         140.5163  142.3588  164.1473 C.ar    1  UNL1        0.0119
     25 C         140.2516  143.7881  163.7768 C.ar    1  UNL1        0.0682
     26 CL        139.8596  144.7768  164.8346 Cl      1  UNL1       -0.0814
     27 C         140.3789  144.2286  162.3487 C.ar    1  UNL1        0.0679
     28 CL        140.1141  145.6578  161.9782 Cl      1  UNL1       -0.0814
     29 C         140.7709  143.2399  161.2910 C.ar    1  UNL1        0.0080
     30 C         144.8294  141.2736  161.8996 C.3     1  UNL1        0.1015
     31 C         144.4728  142.4074  162.8148 C.ar    1  UNL1        0.0213
     32 C         144.2035  143.7708  162.2502 C.ar    1  UNL1       -0.0007
     33 C         143.8470  144.9045  163.1654 C.ar    1  UNL1       -0.0001
     34 C         143.7597  144.6748  164.6452 C.ar    1  UNL1        0.0023
     35 C         144.0290  143.3114  165.2097 C.ar    1  UNL1        0.0294
     36 C         144.3856  142.1777  164.2945 C.ar    1  UNL1        0.1374
     37 F         144.6549  140.8144  164.8590 F       1  UNL1       -0.2045
@<TRIPOS>BOND
     1    16    17    1
     2    17    18    2
     3    17    19    2
     4    17    14    1
     5    14     8    1
     6     8     9   ar
     7     9    10   ar
     8    10    11   ar
     9    11     7    1
    10     7     6    1
    11     6     3    1
    12     3     4    1
    13     3     2    1
    14     2     1    1
    15     1    20    1
    16    20    21    1
    17    21    22    1
    18    22    23   ar
    19    23    24   ar
    20    24    25   ar
    21    25    26    1
    22    25    27   ar
    23    27    28    1
    24    27    29   ar
    25     1    30    1
    26    30    31    1
    27    31    32   ar
    28    32    33   ar
    29    33    34   ar
    30    34    35   ar
    31    35    36   ar
    32    36    37    1
    33    11    12   ar
    34    12    13   ar
    35    13     8   ar
    36    29    22   ar
    37    36    31   ar
    38    14    15    1
    39     4     5    1
@<TRIPOS>MOLECULE
*****
 37 39 0 0 0
SMALL
GASTEIGER

@<TRIPOS>ATOM
      1 N         141.1299  143.6694  161.0518 N.3     1  UNL1       -0.2664
      2 C         139.8626  144.4230  161.3275 C.3     1  UNL1        0.1058
      3 C         139.7798  145.3445  162.5082 C.3     1  UNL1        0.1700
      4 O         140.3324  146.7358  162.4140 O.3     1  UNL1       -0.3793
      5 H         140.7044  146.8767  161.5293 H       1  UNL1        0.2106
      6 C         139.1443  144.8748  163.7832 C.3     1  UNL1        0.2358
      7 O         138.6328  143.4689  163.8926 O.3     1  UNL1       -0.4728
      8 C         140.6147  140.5659  166.7024 C.ar    1  UNL1        0.0646
      9 C         141.2295  141.9122  166.4585 C.ar    1  UNL1        0.0190
     10 C         140.5688  142.8799  165.5219 C.ar    1  UNL1        0.0382
     11 C         139.2934  142.5013  164.8292 C.ar    1  UNL1        0.1388
     12 C         138.6787  141.1550  165.0730 C.ar    1  UNL1        0.0382
     13 C         139.3393  140.1873  166.0096 C.ar    1  UNL1        0.0190
     14 N         141.2753  139.5983  167.6390 N.pl3   1  UNL1       -0.2187
     15 H         141.5805  138.7229  167.3076 H       1  UNL1        0.1734
     16 C         141.6666  140.3305  170.5218 C.3     1  UNL1        0.1996
     17 S         141.4710  139.9644  169.0804 S.O2    1  UNL1        0.0558
     18 O         139.9990  139.8053  169.3206 O.2     1  UNL1       -0.1544
     19 O         142.9430  140.1235  168.8401 O.2     1  UNL1       -0.1544
     20 C         141.0701  142.2932  160.4581 C.3     1  UNL1        0.0771
     21 C         140.0026  141.3339  160.8943 C.3     1  UNL1        0.0437
     22 C         140.3382  140.2165  161.8370 C.ar    1  UNL1       -0.0199
     23 C         139.4318  139.0259  161.9419 C.ar    1  UNL1       -0.0033
     24 C         139.7675  137.9086  162.8847 C.ar    1  UNL1        0.0119
     25 C         141.0095  137.9818  163.7225 C.ar    1  UNL1        0.0682
     26 CL        141.3451  136.8643  164.6653 Cl      1  UNL1       -0.0814
     27 C         141.9159  139.1723  163.6177 C.ar    1  UNL1        0.0679
     28 CL        143.1579  139.2454  164.4556 Cl      1  UNL1       -0.0814
     29 C         141.5803  140.2896  162.6749 C.ar    1  UNL1        0.0080
     30 C         142.4571  144.2920  161.3699 C.3     1  UNL1        0.1015
     31 C         143.3964  143.6108  162.3205 C.ar    1  UNL1        0.0213
     32 C         144.2791  142.4993  161.8353 C.ar    1  UNL1       -0.0007
     33 C         145.2185  141.8182  162.7859 C.ar    1  UNL1       -0.0001
     34 C         145.2751  142.2486  164.2217 C.ar    1  UNL1        0.0023
     35 C         144.3925  143.3601  164.7069 C.ar    1  UNL1        0.0294
     36 C         143.4531  144.0412  163.7563 C.ar    1  UNL1        0.1374
     37 F         142.5704  145.1527  164.2415 F       1  UNL1       -0.2045
@<TRIPOS>BOND
     1    16    17    1
     2    17    18    2
     3    17    19    2
     4    17    14    1
     5    14     8    1
     6     8     9   ar
     7     9    10   ar
     8    10    11   ar
     9    11     7    1
    10     7     6    1
    11     6     3    1
    12     3     4    1
    13     3     2    1
    14     2     1    1
    15     1    20    1
    16    20    21    1
    17    21    22    1
    18    22    23   ar
    19    23    24   ar
    20    24    25   ar
    21    25    26    1
    22    25    27   ar
    23    27    28    1
    24    27    29   ar
    25     1    30    1
    26    30    31    1
    27    31    32   ar
    28    32    33   ar
    29    33    34   ar
    30    34    35   ar
    31    35    36   ar
    32    36    37    1
    33    11    12   ar
    34    12    13   ar
    35    13     8   ar
    36    29    22   ar
    37    36    31   ar
    38    14    15    1
    39     4     5    1
@<TRIPOS>MOLECULE
*****
 37 39 0 0 0
SMALL
GASTEIGER

@<TRIPOS>ATOM
      1 N         139.7463  138.2914  162.0193 N.3     1  UNL1       -0.2664
      2 C         140.8645  138.7146  161.1135 C.3     1  UNL1        0.1058
      3 C         142.2851  138.3996  161.4779 C.3     1  UNL1        0.1700
      4 O         142.9084  137.1133  161.0233 O.3     1  UNL1       -0.3793
      5 H         142.2621  136.6049  160.5087 H       1  UNL1        0.2106
      6 C         143.0823  139.3711  162.2969 C.3     1  UNL1        0.2358
      7 O         143.7683  138.9106  163.5489 O.3     1  UNL1       -0.4728
      8 C         142.6666  140.7262  167.5162 C.ar    1  UNL1        0.0646
      9 C         143.1097  141.6068  166.3856 C.ar    1  UNL1        0.0190
     10 C         143.4769  141.0016  165.0631 C.ar    1  UNL1        0.0382
     11 C         143.4011  139.5158  164.8713 C.ar    1  UNL1        0.1388
     12 C         142.9580  138.6353  166.0019 C.ar    1  UNL1        0.0382
     13 C         142.5908  139.2405  167.3244 C.ar    1  UNL1        0.0190
     14 N         142.2993  141.3314  168.8386 N.pl3   1  UNL1       -0.2187
     15 H         142.9713  141.8340  169.3536 H       1  UNL1        0.1734
     16 C         139.5173  141.0105  169.9144 C.3     1  UNL1        0.1996
     17 S         140.9083  141.1710  169.3765 S.O2    1  UNL1        0.0558
     18 O         141.3886  140.0870  170.2952 O.2     1  UNL1       -0.1544
     19 O         140.4280  142.2550  168.4577 O.2     1  UNL1       -0.1544
     20 C         138.3219  138.5314  161.6152 C.3     1  UNL1        0.0771
     21 C         137.8975  139.8867  161.1323 C.3     1  UNL1        0.0437
     22 C         138.1681  141.1004  161.9712 C.ar    1  UNL1       -0.0199
     23 C         137.2909  141.4095  163.1480 C.ar    1  UNL1       -0.0033
     24 C         137.5616  142.6232  163.9868 C.ar    1  UNL1        0.0119
     25 C         138.7093  143.5279  163.6488 C.ar    1  UNL1        0.0682
     26 CL        138.9799  144.7416  164.4876 Cl      1  UNL1       -0.0814
     27 C         139.5865  143.2188  162.4719 C.ar    1  UNL1        0.0679
     28 CL        140.7343  144.1234  162.1339 Cl      1  UNL1       -0.0814
     29 C         139.3159  142.0051  161.6331 C.ar    1  UNL1        0.0080
     30 C         140.0527  137.6280  163.3294 C.3     1  UNL1        0.1015
     31 C         139.3816  138.1012  164.5847 C.ar    1  UNL1        0.0213
     32 C         138.5143  137.1632  165.3709 C.ar    1  UNL1       -0.0007
     33 C         137.8432  137.6365  166.6262 C.ar    1  UNL1       -0.0001
     34 C         138.0394  139.0477  167.0952 C.ar    1  UNL1        0.0023
     35 C         138.9067  139.9856  166.3090 C.ar    1  UNL1        0.0294
     36 C         139.5778  139.5124  165.0538 C.ar    1  UNL1        0.1374
     37 F         140.4450  140.4503  164.2676 F       1  UNL1       -0.2045
@<TRIPOS>BOND
     1    16    17    1
     2    17    18    2
     3    17    19    2
     4    17    14    1
     5    14     8    1
     6     8     9   ar
     7     9    10   ar
     8    10    11   ar
     9    11     7    1
    10     7     6    1
    11     6     3    1
    12     3     4    1
    13     3     2    1
    14     2     1    1
    15     1    20    1
    16    20    21    1
    17    21    22    1
    18    22    23   ar
    19    23    24   ar
    20    24    25   ar
    21    25    26    1
    22    25    27   ar
    23    27    28    1
    24    27    29   ar
    25     1    30    1
    26    30    31    1
    27    31    32   ar
    28    32    33   ar
    29    33    34   ar
    30    34    35   ar
    31    35    36   ar
    32    36    37    1
    33    11    12   ar
    34    12    13   ar
    35    13     8   ar
    36    29    22   ar
    37    36    31   ar
    38    14    15    1
    39     4     5    1
@<TRIPOS>MOLECULE
*****
 37 39 0 0 0
SMALL
GASTEIGER

@<TRIPOS>ATOM
      1 N         138.6570  143.5264  164.1417 N.3     1  UNL1       -0.2664
      2 C         137.9573  142.2703  164.5689 C.3     1  UNL1        0.1058
      3 C         137.8019  141.1329  163.6034 C.3     1  UNL1        0.1700
      4 O         136.6272  141.0953  162.6714 O.3     1  UNL1       -0.3793
      5 H         136.0698  141.8748  162.8222 H       1  UNL1        0.2106
      6 C         138.8213  140.0330  163.5698 C.3     1  UNL1        0.2358
      7 O         138.9554  139.0989  164.7358 O.3     1  UNL1       -0.4728
      8 C         141.9306  139.9807  167.9947 C.ar    1  UNL1        0.0646
      9 C         142.3896  139.3630  166.7072 C.ar    1  UNL1        0.0190
     10 C         141.3978  139.0690  165.6209 C.ar    1  UNL1        0.0382
     11 C         139.9471  139.3928  165.8221 C.ar    1  UNL1        0.1388
     12 C         139.4881  140.0105  167.1096 C.ar    1  UNL1        0.0382
     13 C         140.4798  140.3045  168.1959 C.ar    1  UNL1        0.0190
     14 N         142.9223  140.2746  169.0810 N.pl3   1  UNL1       -0.2187
     15 H         143.5888  139.5963  169.3357 H       1  UNL1        0.1734
     16 C         142.8747  142.9294  170.4774 C.3     1  UNL1        0.1996
     17 S         142.8985  141.6020  169.7792 S.O2    1  UNL1        0.0558
     18 O         143.4125  142.2652  168.5359 O.2     1  UNL1       -0.1544
     19 O         142.3845  140.9387  171.0225 O.2     1  UNL1       -0.1544
     20 C         139.6631  144.1702  165.0491 C.3     1  UNL1        0.0771
     21 C         140.9729  143.4908  165.3187 C.3     1  UNL1        0.0437
     22 C         141.9570  143.2900  164.2045 C.ar    1  UNL1       -0.0199
     23 C         142.8370  144.4235  163.7677 C.ar    1  UNL1       -0.0033
     24 C         143.8209  144.2226  162.6535 C.ar    1  UNL1        0.0119
     25 C         143.9249  142.8883  161.9762 C.ar    1  UNL1        0.0682
     26 CL        144.9090  142.6875  160.8619 Cl      1  UNL1       -0.0814
     27 C         143.0449  141.7549  162.4129 C.ar    1  UNL1        0.0679
     28 CL        143.1489  140.4206  161.7356 Cl      1  UNL1       -0.0814
     29 C         142.0609  141.9557  163.5271 C.ar    1  UNL1        0.0080
     30 C         138.3508  144.1387  162.8070 C.3     1  UNL1        0.1015
     31 C         139.3652  144.0785  161.7037 C.ar    1  UNL1        0.0213
     32 C         139.5741  142.8009  160.9459 C.ar    1  UNL1       -0.0007
     33 C         140.5885  142.7406  159.8425 C.ar    1  UNL1       -0.0001
     34 C         141.3940  143.9580  159.4970 C.ar    1  UNL1        0.0023
     35 C         141.1851  145.2355  160.2548 C.ar    1  UNL1        0.0294
     36 C         140.1707  145.2957  161.3582 C.ar    1  UNL1        0.1374
     37 F         139.9618  146.5732  162.1160 F       1  UNL1       -0.2045
@<TRIPOS>BOND
     1    16    17    1
     2    17    18    2
     3    17    19    2
     4    17    14    1
     5    14     8    1
     6     8     9   ar
     7     9    10   ar
     8    10    11   ar
     9    11     7    1
    10     7     6    1
    11     6     3    1
    12     3     4    1
    13     3     2    1
    14     2     1    1
    15     1    20    1
    16    20    21    1
    17    21    22    1
    18    22    23   ar
    19    23    24   ar
    20    24    25   ar
    21    25    26    1
    22    25    27   ar
    23    27    28    1
    24    27    29   ar
    25     1    30    1
    26    30    31    1
    27    31    32   ar
    28    32    33   ar
    29    33    34   ar
    30    34    35   ar
    31    35    36   ar
    32    36    37    1
    33    11    12   ar
    34    12    13   ar
    35    13     8   ar
    36    29    22   ar
    37    36    31   ar
    38    14    15    1
    39     4     5    1
@<TRIPOS>MOLECULE
*****
 37 39 0 0 0
SMALL
GASTEIGER

@<TRIPOS>ATOM
      1 N         142.1630  138.9969  165.7417 N.3     1  UNL1       -0.2664
      2 C         142.9769  139.1146  166.9962 C.3     1  UNL1        0.1058
      3 C         142.6009  140.1215  168.0425 C.3     1  UNL1        0.1700
      4 O         142.1526  139.6626  169.3983 O.3     1  UNL1       -0.3793
      5 H         142.1629  138.6932  169.4313 H       1  UNL1        0.2106
      6 C         142.6732  141.5874  167.7328 C.3     1  UNL1        0.2358
      7 O         143.5684  142.0787  166.6341 O.3     1  UNL1       -0.4728
      8 C         141.8975  144.6783  163.3631 C.ar    1  UNL1        0.0646
      9 C         143.2815  144.9267  163.8853 C.ar    1  UNL1        0.0190
     10 C         143.8385  144.0602  164.9756 C.ar    1  UNL1        0.0382
     11 C         143.0114  142.9452  165.5438 C.ar    1  UNL1        0.1388
     12 C         141.6274  142.6968  165.0216 C.ar    1  UNL1        0.0382
     13 C         141.0704  143.5634  163.9312 C.ar    1  UNL1        0.0190
     14 N         141.3405  145.5449  162.2728 N.pl3   1  UNL1       -0.2187
     15 H         141.3243  146.5233  162.3814 H       1  UNL1        0.1734
     16 C         140.2757  144.2968  159.7611 C.3     1  UNL1        0.1996
     17 S         140.8081  144.9209  161.0170 S.O2    1  UNL1        0.0558
     18 O         142.2019  144.5375  160.6166 O.2     1  UNL1       -0.1544
     19 O         139.4143  145.3042  161.4173 O.2     1  UNL1       -0.1544
     20 C         140.6729  139.1593  165.7965 C.3     1  UNL1        0.0771
     21 C         139.7899  138.2585  164.9847 C.3     1  UNL1        0.0437
     22 C         139.2495  138.7274  163.6663 C.ar    1  UNL1       -0.0199
     23 C         139.1886  137.7835  162.5022 C.ar    1  UNL1       -0.0033
     24 C         138.6482  138.2524  161.1839 C.ar    1  UNL1        0.0119
     25 C         138.1687  139.6652  161.0297 C.ar    1  UNL1        0.0682
     26 CL        137.6282  140.1341  159.7112 Cl      1  UNL1       -0.0814
     27 C         138.2295  140.6092  162.1938 C.ar    1  UNL1        0.0679
     28 CL        137.7499  142.0221  162.0395 Cl      1  UNL1       -0.0814
     29 C         138.7699  140.1403  163.5121 C.ar    1  UNL1        0.0080
     30 C         142.8394  138.7167  164.4324 C.3     1  UNL1        0.1015
     31 C         143.5950  139.8058  163.7304 C.ar    1  UNL1        0.0213
     32 C         144.9533  140.2121  164.2204 C.ar    1  UNL1       -0.0007
     33 C         145.7090  141.3013  163.5184 C.ar    1  UNL1       -0.0001
     34 C         145.1063  141.9841  162.3265 C.ar    1  UNL1        0.0023
     35 C         143.7481  141.5777  161.8366 C.ar    1  UNL1        0.0294
     36 C         142.9925  140.4886  162.5385 C.ar    1  UNL1        0.1374
     37 F         141.6342  140.0823  162.0486 F       1  UNL1       -0.2045
@<TRIPOS>BOND
     1    16    17    1
     2    17    18    2
     3    17    19    2
     4    17    14    1
     5    14     8    1
     6     8     9   ar
     7     9    10   ar
     8    10    11   ar
     9    11     7    1
    10     7     6    1
    11     6     3    1
    12     3     4    1
    13     3     2    1
    14     2     1    1
    15     1    20    1
    16    20    21    1
    17    21    22    1
    18    22    23   ar
    19    23    24   ar
    20    24    25   ar
    21    25    26    1
    22    25    27   ar
    23    27    28    1
    24    27    29   ar
    25     1    30    1
    26    30    31    1
    27    31    32   ar
    28    32    33   ar
    29    33    34   ar
    30    34    35   ar
    31    35    36   ar
    32    36    37    1
    33    11    12   ar
    34    12    13   ar
    35    13     8   ar
    36    29    22   ar
    37    36    31   ar
    38    14    15    1
    39     4     5    1
@<TRIPOS>MOLECULE
*****
 37 39 0 0 0
SMALL
GASTEIGER

@<TRIPOS>ATOM
      1 N         140.5150  144.5243  163.2324 N.3     1  UNL1       -0.2664
      2 C         139.7422  144.9782  162.0296 C.3     1  UNL1        0.1058
      3 C         140.3331  144.8303  160.6588 C.3     1  UNL1        0.1700
      4 O         141.4731  145.7081  160.2348 O.3     1  UNL1       -0.3793
      5 H         141.7041  146.3105  160.9592 H       1  UNL1        0.2106
      6 C         139.7840  143.8045  159.7121 C.3     1  UNL1        0.2358
      7 O         138.5134  143.0803  160.0454 O.3     1  UNL1       -0.4728
      8 C         138.6789  138.9919  161.9182 C.ar    1  UNL1        0.0646
      9 C         138.1363  140.1526  162.6981 C.ar    1  UNL1        0.0190
     10 C         138.0812  141.5154  162.0738 C.ar    1  UNL1        0.0382
     11 C         138.5686  141.7175  160.6697 C.ar    1  UNL1        0.1388
     12 C         139.1112  140.5567  159.8899 C.ar    1  UNL1        0.0382
     13 C         139.1663  139.1939  160.5141 C.ar    1  UNL1        0.0190
     14 N         138.7341  137.6291  162.5425 N.pl3   1  UNL1       -0.2187
     15 H         138.0644  136.9493  162.3004 H       1  UNL1        0.1734
     16 C         140.8852  136.9749  164.5286 C.3     1  UNL1        0.1996
     17 S         139.8096  137.3020  163.5355 S.O2    1  UNL1        0.0558
     18 O         138.8330  137.4962  164.6573 O.2     1  UNL1       -0.1544
     19 O         140.7863  137.1078  162.4138 O.2     1  UNL1       -0.1544
     20 C         139.8565  144.4950  164.5798 C.3     1  UNL1        0.0771
     21 C         139.2081  143.2345  165.0705 C.3     1  UNL1        0.0437
     22 C         139.9664  142.3008  165.9668 C.ar    1  UNL1       -0.0199
     23 C         139.8050  140.8175  165.8133 C.ar    1  UNL1       -0.0033
     24 C         140.5633  139.8839  166.7096 C.ar    1  UNL1        0.0119
     25 C         141.4829  140.4336  167.7593 C.ar    1  UNL1        0.0682
     26 CL        142.2412  139.4999  168.6557 Cl      1  UNL1       -0.0814
     27 C         141.6443  141.9170  167.9128 C.ar    1  UNL1        0.0679
     28 CL        142.5640  142.4667  168.9626 Cl      1  UNL1       -0.0814
     29 C         140.8860  142.8506  167.0165 C.ar    1  UNL1        0.0080
     30 C         141.9464  144.0997  163.0878 C.3     1  UNL1        0.1015
     31 C         142.3448  142.6873  163.3984 C.ar    1  UNL1        0.0213
     32 C         141.7844  141.5549  162.5899 C.ar    1  UNL1       -0.0007
     33 C         142.1828  140.1425  162.9005 C.ar    1  UNL1       -0.0001
     34 C         143.1416  139.8626  164.0197 C.ar    1  UNL1        0.0023
     35 C         143.7019  140.9950  164.8282 C.ar    1  UNL1        0.0294
     36 C         143.3035  142.4074  164.5175 C.ar    1  UNL1        0.1374
     37 F         143.8639  143.5398  165.3260 F       1  UNL1       -0.2045
@<TRIPOS>BOND
     1    16    17    1
     2    17    18    2
     3    17    19    2
     4    17    14    1
     5    14     8    1
     6     8     9   ar
     7     9    10   ar
     8    10    11   ar
     9    11     7    1
    10     7     6    1
    11     6     3    1
    12     3     4    1
    13     3     2    1
    14     2     1    1
    15     1    20    1
    16    20    21    1
    17    21    22    1
    18    22    23   ar
    19    23    24   ar
    20    24    25   ar
    21    25    26    1
    22    25    27   ar
    23    27    28    1
    24    27    29   ar
    25     1    30    1
    26    30    31    1
    27    31    32   ar
    28    32    33   ar
    29    33    34   ar
    30    34    35   ar
    31    35    36   ar
    32    36    37    1
    33    11    12   ar
    34    12    13   ar
    35    13     8   ar
    36    29    22   ar
    37    36    31   ar
    38    14    15    1
    39     4     5    1
@<TRIPOS>MOLECULE
*****
 37 39 0 0 0
SMALL
GASTEIGER

@<TRIPOS>ATOM
      1 N         138.9099  138.2954  164.1205 N.3     1  UNL1       -0.2664
      2 C         138.3627  137.9655  162.7633 C.3     1  UNL1        0.1058
      3 C         138.2228  139.0428  161.7289 C.3     1  UNL1        0.1700
      4 O         137.1298  140.0627  161.8512 O.3     1  UNL1       -0.3793
      5 H         136.6079  139.8832  162.6489 H       1  UNL1        0.2106
      6 C         139.1761  139.1001  160.5722 C.3     1  UNL1        0.2358
      7 O         139.2875  140.3519  159.7534 O.3     1  UNL1       -0.4728
      8 C         141.6330  143.8605  161.3150 C.ar    1  UNL1        0.0646
      9 C         142.1324  142.4642  161.5407 C.ar    1  UNL1        0.0190
     10 C         141.3506  141.2947  161.0202 C.ar    1  UNL1        0.0382
     11 C         140.0693  141.5214  160.2739 C.ar    1  UNL1        0.1388
     12 C         139.5699  142.9177  160.0482 C.ar    1  UNL1        0.0382
     13 C         140.3518  144.0872  160.5687 C.ar    1  UNL1        0.0190
     14 N         142.4149  145.0300  161.8355 N.pl3   1  UNL1       -0.2187
     15 H         142.4468  145.8689  161.3212 H       1  UNL1        0.1734
     16 C         143.8812  144.8128  164.4437 C.3     1  UNL1        0.1996
     17 S         143.1480  144.9214  163.1395 S.O2    1  UNL1        0.0558
     18 O         141.8715  145.1907  163.8797 O.2     1  UNL1       -0.1544
     19 O         144.4246  144.6521  162.3994 O.2     1  UNL1       -0.1544
     20 C         140.1215  137.5767  164.6356 C.3     1  UNL1        0.0771
     21 C         141.2879  137.3261  163.7264 C.3     1  UNL1        0.0437
     22 C         142.3620  138.3631  163.5812 C.ar    1  UNL1       -0.0199
     23 C         143.2664  138.3438  162.3847 C.ar    1  UNL1       -0.0033
     24 C         144.3404  139.3808  162.2396 C.ar    1  UNL1        0.0119
     25 C         144.5100  140.4371  163.2909 C.ar    1  UNL1        0.0682
     26 CL        145.5841  141.4742  163.1457 Cl      1  UNL1       -0.0814
     27 C         143.6056  140.4565  164.4874 C.ar    1  UNL1        0.0679
     28 CL        143.7752  141.5128  165.5388 Cl      1  UNL1       -0.0814
     29 C         142.5316  139.4195  164.6326 C.ar    1  UNL1        0.0080
     30 C         138.2454  139.3441  164.9624 C.3     1  UNL1        0.1015
     31 C         139.0765  140.3556  165.6946 C.ar    1  UNL1        0.0213
     32 C         139.4361  140.1307  167.1335 C.ar    1  UNL1       -0.0007
     33 C         140.2672  141.1422  167.8657 C.ar    1  UNL1       -0.0001
     34 C         140.7387  142.3786  167.1591 C.ar    1  UNL1        0.0023
     35 C         140.3791  142.6033  165.7203 C.ar    1  UNL1        0.0294
     36 C         139.5480  141.5918  164.9881 C.ar    1  UNL1        0.1374
     37 F         139.1884  141.8166  163.5493 F       1  UNL1       -0.2045
@<TRIPOS>BOND
     1    16    17    1
     2    17    18    2
     3    17    19    2
     4    17    14    1
     5    14     8    1
     6     8     9   ar
     7     9    10   ar
     8    10    11   ar
     9    11     7    1
    10     7     6    1
    11     6     3    1
    12     3     4    1
    13     3     2    1
    14     2     1    1
    15     1    20    1
    16    20    21    1
    17    21    22    1
    18    22    23   ar
    19    23    24   ar
    20    24    25   ar
    21    25    26    1
    22    25    27   ar
    23    27    28    1
    24    27    29   ar
    25     1    30    1
    26    30    31    1
    27    31    32   ar
    28    32    33   ar
    29    33    34   ar
    30    34    35   ar
    31    35    36   ar
    32    36    37    1
    33    11    12   ar
    34    12    13   ar
    35    13     8   ar
    36    29    22   ar
    37    36    31   ar
    38    14    15    1
    39     4     5    1
@<TRIPOS>MOLECULE
*****
 37 39 0 0 0
SMALL
GASTEIGER

@<TRIPOS>ATOM
      1 N         139.1393  141.8567  161.1190 N.3     1  UNL1       -0.2664
      2 C         139.2327  143.3525  161.1818 C.3     1  UNL1        0.1058
      3 C         138.8361  144.0768  162.4341 C.3     1  UNL1        0.1700
      4 O         137.4250  144.5544  162.6094 O.3     1  UNL1       -0.3793
      5 H         136.9033  144.3157  161.8272 H       1  UNL1        0.2106
      6 C         139.8506  144.3234  163.5111 C.3     1  UNL1        0.2358
      7 O         140.8960  143.2894  163.8077 O.3     1  UNL1       -0.4728
      8 C         141.6627  142.0189  168.0559 C.ar    1  UNL1        0.0646
      9 C         142.6745  141.7202  166.9896 C.ar    1  UNL1        0.0190
     10 C         142.4189  142.1437  165.5735 C.ar    1  UNL1        0.0382
     11 C         141.1516  142.8659  165.2238 C.ar    1  UNL1        0.1388
     12 C         140.1398  143.1645  166.2901 C.ar    1  UNL1        0.0382
     13 C         140.3954  142.7410  167.7062 C.ar    1  UNL1        0.0190
     14 N         141.9183  141.5954  169.4720 N.pl3   1  UNL1       -0.2187
     15 H         141.8741  142.2573  170.1994 H       1  UNL1        0.1734
     16 C         142.5643  138.7311  170.0877 C.3     1  UNL1        0.1996
     17 S         142.2413  140.1633  169.7799 S.O2    1  UNL1        0.0558
     18 O         140.8605  139.7604  169.3547 O.2     1  UNL1       -0.1544
     19 O         143.6222  140.5662  170.2051 O.2     1  UNL1       -0.1544
     20 C         140.1917  141.0693  160.3962 C.3     1  UNL1        0.0771
     21 C         141.6312  141.4808  160.4873 C.3     1  UNL1        0.0437
     22 C         142.5117  140.8985  161.5531 C.ar    1  UNL1       -0.0199
     23 C         142.1163  139.6247  162.2394 C.ar    1  UNL1       -0.0033
     24 C         142.9967  139.0424  163.3050 C.ar    1  UNL1        0.0119
     25 C         144.2726  139.7340  163.6845 C.ar    1  UNL1        0.0682
     26 CL        145.1530  139.1517  164.7502 Cl      1  UNL1       -0.0814
     27 C         144.6680  141.0078  162.9982 C.ar    1  UNL1        0.0679
     28 CL        145.9438  141.6994  163.3777 Cl      1  UNL1       -0.0814
     29 C         143.7875  141.5901  161.9325 C.ar    1  UNL1        0.0080
     30 C         137.9935  141.1484  161.7790 C.3     1  UNL1        0.1015
     31 C         138.2461  140.2352  162.9419 C.ar    1  UNL1        0.0213
     32 C         138.7074  138.8278  162.7039 C.ar    1  UNL1       -0.0007
     33 C         138.9599  137.9146  163.8668 C.ar    1  UNL1       -0.0001
     34 C         138.7512  138.4088  165.2677 C.ar    1  UNL1        0.0023
     35 C         138.2900  139.8162  165.5056 C.ar    1  UNL1        0.0294
     36 C         138.0375  140.7293  164.3427 C.ar    1  UNL1        0.1374
     37 F         137.5762  142.1367  164.5806 F       1  UNL1       -0.2045
@<TRIPOS>BOND
     1    16    17    1
     2    17    18    2
     3    17    19    2
     4    17    14    1
     5    14     8    1
     6     8     9   ar
     7     9    10   ar
     8    10    11   ar
     9    11     7    1
    10     7     6    1
    11     6     3    1
    12     3     4    1
    13     3     2    1
    14     2     1    1
    15     1    20    1
    16    20    21    1
    17    21    22    1
    18    22    23   ar
    19    23    24   ar
    20    24    25   ar
    21    25    26    1
    22    25    27   ar
    23    27    28    1
    24    27    29   ar
    25     1    30    1
    26    30    31    1
    27    31    32   ar
    28    32    33   ar
    29    33    34   ar
    30    34    35   ar
    31    35    36   ar
    32    36    37    1
    33    11    12   ar
    34    12    13   ar
    35    13     8   ar
    36    29    22   ar
    37    36    31   ar
    38    14    15    1
    39     4     5    1
@<TRIPOS>MOLECULE
*****
 37 39 0 0 0
SMALL
GASTEIGER

@<TRIPOS>ATOM
      1 N         137.9734  142.5367  162.4376 N.3     1  UNL1       -0.2664
      2 C         137.6693  141.2589  163.1620 C.3     1  UNL1        0.1058
      3 C         137.8877  139.9404  162.4809 C.3     1  UNL1        0.1700
      4 O         136.9897  139.5198  161.3554 O.3     1  UNL1       -0.3793
      5 H         136.3263  140.2093  161.1961 H       1  UNL1        0.2106
      6 C         139.0040  139.0425  162.9254 C.3     1  UNL1        0.2358
      7 O         138.8915  138.2894  164.2177 O.3     1  UNL1       -0.4728
      8 C         140.6148  140.0292  167.9931 C.ar    1  UNL1        0.0646
      9 C         141.5236  139.6282  166.8691 C.ar    1  UNL1        0.0190
     10 C         140.9492  139.0483  165.6107 C.ar    1  UNL1        0.0382
     11 C         139.4660  138.8694  165.4762 C.ar    1  UNL1        0.1388
     12 C         138.5572  139.2704  166.6001 C.ar    1  UNL1        0.0382
     13 C         139.1317  139.8503  167.8586 C.ar    1  UNL1        0.0190
     14 N         141.1893  140.6092  169.2515 N.pl3   1  UNL1       -0.2187
     15 H         142.0274  140.2489  169.6217 H       1  UNL1        0.1734
     16 C         139.7843  142.8669  170.6404 C.3     1  UNL1        0.1996
     17 S         140.4868  141.7380  169.9459 S.O2    1  UNL1        0.0558
     18 O         140.0399  140.7964  171.0246 O.2     1  UNL1       -0.1544
     19 O         140.9337  142.6796  168.8672 O.2     1  UNL1       -0.1544
     20 C         137.6770  143.8559  163.0870 C.3     1  UNL1        0.0771
     21 C         138.7777  144.8533  163.2958 C.3     1  UNL1        0.0437
     22 C         140.1045  144.4046  163.8330 C.ar    1  UNL1       -0.0199
     23 C         140.1664  143.3248  164.8723 C.ar    1  UNL1       -0.0033
     24 C         141.4931  142.8762  165.4094 C.ar    1  UNL1        0.0119
     25 C         142.7578  143.5073  164.9072 C.ar    1  UNL1        0.0682
     26 CL        144.0846  143.0585  165.4444 Cl      1  UNL1       -0.0814
     27 C         142.6959  144.5870  163.8679 C.ar    1  UNL1        0.0679
     28 CL        143.9606  145.2181  163.3657 Cl      1  UNL1       -0.0814
     29 C         141.3692  145.0357  163.3308 C.ar    1  UNL1        0.0080
     30 C         138.5741  142.4953  161.0637 C.3     1  UNL1        0.1015
     31 C         140.0577  142.6320  160.8893 C.ar    1  UNL1        0.0213
     32 C         140.9863  141.6952  161.6037 C.ar    1  UNL1       -0.0007
     33 C         142.4698  141.8320  161.4293 C.ar    1  UNL1       -0.0001
     34 C         143.0247  142.9055  160.5406 C.ar    1  UNL1        0.0023
     35 C         142.0961  143.8422  159.8263 C.ar    1  UNL1        0.0294
     36 C         140.6126  143.7054  160.0007 C.ar    1  UNL1        0.1374
     37 F         139.6840  144.6421  159.2864 F       1  UNL1       -0.2045
@<TRIPOS>BOND
     1    16    17    1
     2    17    18    2
     3    17    19    2
     4    17    14    1
     5    14     8    1
     6     8     9   ar
     7     9    10   ar
     8    10    11   ar
     9    11     7    1
    10     7     6    1
    11     6     3    1
    12     3     4    1
    13     3     2    1
    14     2     1    1
    15     1    20    1
    16    20    21    1
    17    21    22    1
    18    22    23   ar
    19    23    24   ar
    20    24    25   ar
    21    25    26    1
    22    25    27   ar
    23    27    28    1
    24    27    29   ar
    25     1    30    1
    26    30    31    1
    27    31    32   ar
    28    32    33   ar
    29    33    34   ar
    30    34    35   ar
    31    35    36   ar
    32    36    37    1
    33    11    12   ar
    34    12    13   ar
    35    13     8   ar
    36    29    22   ar
    37    36    31   ar
    38    14    15    1
    39     4     5    1
