@<TRIPOS>MOLECULE
*****
 24 26 0 0 0
SMALL
GASTEIGER

@<TRIPOS>ATOM
      1 C         140.6838  142.2200  169.0302 C.3     1  UNL1        0.1025
      2 C         140.9074  142.0255  167.5598 C.3     1  UNL1        0.0327
      3 C         140.1721  140.9434  166.8260 C.3     1  UNL1        0.0943
      4 N         139.2132  140.0558  167.5626 N.am    1  UNL1       -0.2761
      5 C         138.4779  138.9737  166.8289 C.2     1  UNL1        0.2490
      6 O         137.5190  138.0861  167.5655 O.2     1  UNL1       -0.2699
      7 C         138.9896  140.2503  169.0331 C.3     1  UNL1        0.0943
      8 C         139.7248  141.3324  169.7668 C.3     1  UNL1        0.0327
      9 C         138.7016  138.7792  165.3584 C.ar    1  UNL1        0.0542
     10 C         139.6031  137.6819  164.8755 C.ar    1  UNL1        0.0061
     11 C         139.8266  137.4874  163.4051 C.ar    1  UNL1        0.0198
     12 C         139.1487  138.3902  162.4176 C.ar    1  UNL1        0.0892
     13 N         139.1779  138.4401  160.9186 N.ar    1  UNL1       -0.2245
     14 C         138.2943  139.5682  160.4751 C.ar    1  UNL1        0.1567
     15 N         138.0320  139.9772  159.0559 N.pl3   1  UNL1       -0.3375
     16 S         137.7192  140.2155  161.6999 S.2     1  UNL1       -0.0520
     17 C         138.2472  139.4875  162.9004 C.ar    1  UNL1        0.0498
     18 C         138.0236  139.6820  164.3708 C.ar    1  UNL1        0.0126
     19 H         138.4583  139.4877  158.3157 H       1  UNL1        0.1442
     20 H         137.4335  140.7351  158.8647 H       1  UNL1        0.1442
     21 C         141.4190  143.3021  169.7639 C.2     1  UNL1        0.3167
     22 O         140.6675  144.4748  170.3207 O.2     1  UNL1       -0.2501
     23 C         143.5881  141.8769  169.8822 C.3     1  UNL1        0.2556
     24 O         142.9058  143.2115  169.9409 O.3     1  UNL1       -0.4444
@<TRIPOS>BOND
     1    23    24    1
     2    24    21    1
     3    21    22    2
     4    21     1    1
     5     1     2    1
     6     2     3    1
     7     3     4    1
     8     4     5   am
     9     5     6    2
    10     5     9    1
    11     9    10   ar
    12    10    11   ar
    13    11    12   ar
    14    12    13   ar
    15    13    14   ar
    16    14    15    1
    17    14    16   ar
    18    16    17   ar
    19    17    18   ar
    20     4     7    1
    21     7     8    1
    22     8     1    1
    23    18     9   ar
    24    17    12   ar
    25    15    19    1
    26    15    20    1
@<TRIPOS>MOLECULE
*****
 24 26 0 0 0
SMALL
GASTEIGER

@<TRIPOS>ATOM
      1 C         140.7028  141.9458  169.4885 C.3     1  UNL1        0.1025
      2 C         140.7151  142.9855  168.4074 C.3     1  UNL1        0.0327
      3 C         140.1911  142.6536  167.0416 C.3     1  UNL1        0.0943
      4 N         139.6550  141.2820  166.7569 N.am    1  UNL1       -0.2761
      5 C         139.1311  140.9500  165.3912 C.2     1  UNL1        0.2490
      6 O         138.5950  139.5783  165.1065 O.2     1  UNL1       -0.2699
      7 C         139.6428  140.2422  167.8380 C.3     1  UNL1        0.0943
      8 C         140.1667  140.5741  169.2038 C.3     1  UNL1        0.0327
      9 C         139.1433  141.9898  164.3100 C.ar    1  UNL1        0.0542
     10 C         137.9015  142.7768  164.0123 C.ar    1  UNL1        0.0061
     11 C         137.9138  143.8165  162.9312 C.ar    1  UNL1        0.0198
     12 C         139.1678  144.0693  162.1479 C.ar    1  UNL1        0.0892
     13 N         139.4793  145.0222  161.0321 N.ar    1  UNL1       -0.2245
     14 C         140.9136  144.8241  160.6403 C.ar    1  UNL1        0.1567
     15 N         141.6447  145.5704  159.5638 N.pl3   1  UNL1       -0.3375
     16 S         141.4885  143.7488  161.5139 S.2     1  UNL1       -0.0520
     17 C         140.4095  143.2823  162.4456 C.ar    1  UNL1        0.0498
     18 C         140.3973  142.2426  163.5267 C.ar    1  UNL1        0.0126
     19 H         141.1788  146.2626  159.0413 H       1  UNL1        0.1442
     20 H         142.5904  145.3679  159.3798 H       1  UNL1        0.1442
     21 C         141.2268  142.2777  170.8542 C.2     1  UNL1        0.3167
     22 O         140.3578  142.0764  172.0603 O.2     1  UNL1       -0.2501
     23 C         143.6925  142.4083  170.0460 C.3     1  UNL1        0.2556
     24 O         142.6196  142.8109  171.0140 O.3     1  UNL1       -0.4444
@<TRIPOS>BOND
     1    23    24    1
     2    24    21    1
     3    21    22    2
     4    21     1    1
     5     1     2    1
     6     2     3    1
     7     3     4    1
     8     4     5   am
     9     5     6    2
    10     5     9    1
    11     9    10   ar
    12    10    11   ar
    13    11    12   ar
    14    12    13   ar
    15    13    14   ar
    16    14    15    1
    17    14    16   ar
    18    16    17   ar
    19    17    18   ar
    20     4     7    1
    21     7     8    1
    22     8     1    1
    23    18     9   ar
    24    17    12   ar
    25    15    19    1
    26    15    20    1
@<TRIPOS>MOLECULE
*****
 24 26 0 0 0
SMALL
GASTEIGER

@<TRIPOS>ATOM
      1 C         140.2871  140.5454  169.0714 C.3     1  UNL1        0.1025
      2 C         139.9502  140.4167  167.6155 C.3     1  UNL1        0.0327
      3 C         140.8973  139.7181  166.6853 C.3     1  UNL1        0.0943
      4 N         142.1812  139.1482  167.2112 N.am    1  UNL1       -0.2761
      5 C         143.1283  138.4497  166.2812 C.2     1  UNL1        0.2490
      6 O         144.4123  137.8798  166.8071 O.2     1  UNL1       -0.2699
      7 C         142.5182  139.2769  168.6673 C.3     1  UNL1        0.0943
      8 C         141.5711  139.9755  169.5974 C.3     1  UNL1        0.0327
      9 C         142.7914  138.3210  164.8251 C.ar    1  UNL1        0.0542
     10 C         141.5695  137.5607  164.4024 C.ar    1  UNL1        0.0061
     11 C         141.2327  137.4320  162.9464 C.ar    1  UNL1        0.0198
     12 C         142.1177  138.0638  161.9132 C.ar    1  UNL1        0.0892
     13 N         142.0411  138.1050  160.4156 N.ar    1  UNL1       -0.2245
     14 C         143.2157  138.8908  159.9129 C.ar    1  UNL1        0.1567
     15 N         143.5322  139.1813  158.4757 N.pl3   1  UNL1       -0.3375
     16 S         144.0182  139.3353  161.0997 S.2     1  UNL1       -0.0520
     17 C         143.3396  138.8241  162.3359 C.ar    1  UNL1        0.0498
     18 C         143.6765  138.9527  163.7919 C.ar    1  UNL1        0.0126
     19 H         142.9415  138.8444  157.7637 H       1  UNL1        0.1442
     20 H         144.3306  139.7088  158.2444 H       1  UNL1        0.1442
     21 C         139.3400  141.2439  170.0015 C.2     1  UNL1        0.3167
     22 O         138.1207  140.5303  170.5055 O.2     1  UNL1       -0.2501
     23 C         140.5289  143.5214  169.6145 C.3     1  UNL1        0.2556
     24 O         139.6123  142.6561  170.4277 O.3     1  UNL1       -0.4444
@<TRIPOS>BOND
     1    23    24    1
     2    24    21    1
     3    21    22    2
     4    21     1    1
     5     1     2    1
     6     2     3    1
     7     3     4    1
     8     4     5   am
     9     5     6    2
    10     5     9    1
    11     9    10   ar
    12    10    11   ar
    13    11    12   ar
    14    12    13   ar
    15    13    14   ar
    16    14    15    1
    17    14    16   ar
    18    16    17   ar
    19    17    18   ar
    20     4     7    1
    21     7     8    1
    22     8     1    1
    23    18     9   ar
    24    17    12   ar
    25    15    19    1
    26    15    20    1
@<TRIPOS>MOLECULE
*****
 24 26 0 0 0
SMALL
GASTEIGER

@<TRIPOS>ATOM
      1 C         140.3459  142.3059  169.2625 C.3     1  UNL1        0.1025
      2 C         140.6768  142.3146  167.7995 C.3     1  UNL1        0.0327
      3 C         140.1445  141.2356  166.9037 C.3     1  UNL1        0.0943
      4 N         139.2814  140.1478  167.4710 N.am    1  UNL1       -0.2761
      5 C         138.7492  139.0688  166.5752 C.2     1  UNL1        0.2490
      6 O         137.8860  137.9810  167.1425 O.2     1  UNL1       -0.2699
      7 C         138.9505  140.1391  168.9340 C.3     1  UNL1        0.0943
      8 C         139.4828  141.2181  169.8298 C.3     1  UNL1        0.0327
      9 C         139.0800  139.0775  165.1121 C.ar    1  UNL1        0.0542
     10 C         138.1559  139.7464  164.1382 C.ar    1  UNL1        0.0061
     11 C         138.4868  139.7551  162.6752 C.ar    1  UNL1        0.0198
     12 C         139.7418  139.0950  162.1861 C.ar    1  UNL1        0.0892
     13 N         140.3269  138.9440  160.8132 N.ar    1  UNL1       -0.2245
     14 C         141.6127  138.1818  160.9387 C.ar    1  UNL1        0.1567
     15 N         142.5284  137.8056  159.8116 N.pl3   1  UNL1       -0.3375
     16 S         141.8222  137.8617  162.3891 S.2     1  UNL1       -0.0520
     17 C         140.6659  138.4261  163.1601 C.ar    1  UNL1        0.0498
     18 C         140.3350  138.4174  164.6231 C.ar    1  UNL1        0.0126
     19 H         142.3036  138.0624  158.8882 H       1  UNL1        0.1442
     20 H         143.3541  137.3020  159.9954 H       1  UNL1        0.1442
     21 C         140.8781  143.3849  170.1583 C.2     1  UNL1        0.3167
     22 O         140.1497  144.6911  170.2736 O.2     1  UNL1       -0.2501
     23 C         143.4074  142.7946  170.2253 C.3     1  UNL1        0.2556
     24 O         142.1388  143.1577  170.9387 O.3     1  UNL1       -0.4444
@<TRIPOS>BOND
     1    23    24    1
     2    24    21    1
     3    21    22    2
     4    21     1    1
     5     1     2    1
     6     2     3    1
     7     3     4    1
     8     4     5   am
     9     5     6    2
    10     5     9    1
    11     9    10   ar
    12    10    11   ar
    13    11    12   ar
    14    12    13   ar
    15    13    14   ar
    16    14    15    1
    17    14    16   ar
    18    16    17   ar
    19    17    18   ar
    20     4     7    1
    21     7     8    1
    22     8     1    1
    23    18     9   ar
    24    17    12   ar
    25    15    19    1
    26    15    20    1
@<TRIPOS>MOLECULE
*****
 24 26 0 0 0
SMALL
GASTEIGER

@<TRIPOS>ATOM
      1 C         140.0809  141.7509  169.3259 C.3     1  UNL1        0.1025
      2 C         140.7935  142.5877  168.3053 C.3     1  UNL1        0.0327
      3 C         140.8562  142.1359  166.8763 C.3     1  UNL1        0.0943
      4 N         140.2063  140.8471  166.4680 N.am    1  UNL1       -0.2761
      5 C         140.2690  140.3952  165.0391 C.2     1  UNL1        0.2490
      6 O         139.6191  139.1064  164.6309 O.2     1  UNL1       -0.2699
      7 C         139.4936  140.0102  167.4888 C.3     1  UNL1        0.0943
      8 C         139.4309  140.4621  168.9177 C.3     1  UNL1        0.0327
      9 C         140.9817  141.2321  164.0184 C.ar    1  UNL1        0.0542
     10 C         142.4551  141.0553  163.8001 C.ar    1  UNL1        0.0061
     11 C         143.1677  141.8922  162.7794 C.ar    1  UNL1        0.0198
     12 C         142.4069  142.9058  161.9770 C.ar    1  UNL1        0.0892
     13 N         142.8358  143.8672  160.9085 N.ar    1  UNL1       -0.2245
     14 C         141.6274  144.6382  160.4665 C.ar    1  UNL1        0.1567
     15 N         141.5995  145.7066  159.4139 N.pl3   1  UNL1       -0.3375
     16 S         140.4517  144.1532  161.2618 S.2     1  UNL1       -0.0520
     17 C         140.9334  143.0825  162.1954 C.ar    1  UNL1        0.0498
     18 C         140.2208  142.2457  163.2161 C.ar    1  UNL1        0.0126
     19 H         142.4279  145.9567  158.9444 H       1  UNL1        0.1442
     20 H         140.7529  146.1576  159.1926 H       1  UNL1        0.1442
     21 C         140.0182  142.2028  170.7548 C.2     1  UNL1        0.3167
     22 O         139.1781  143.3873  171.1307 O.2     1  UNL1       -0.2501
     23 C         142.0979  140.8133  171.4580 C.3     1  UNL1        0.2556
     24 O         140.7955  141.4702  171.8080 O.3     1  UNL1       -0.4444
@<TRIPOS>BOND
     1    23    24    1
     2    24    21    1
     3    21    22    2
     4    21     1    1
     5     1     2    1
     6     2     3    1
     7     3     4    1
     8     4     5   am
     9     5     6    2
    10     5     9    1
    11     9    10   ar
    12    10    11   ar
    13    11    12   ar
    14    12    13   ar
    15    13    14   ar
    16    14    15    1
    17    14    16   ar
    18    16    17   ar
    19    17    18   ar
    20     4     7    1
    21     7     8    1
    22     8     1    1
    23    18     9   ar
    24    17    12   ar
    25    15    19    1
    26    15    20    1
@<TRIPOS>MOLECULE
*****
 24 26 0 0 0
SMALL
GASTEIGER

@<TRIPOS>ATOM
      1 C         141.0912  141.2018  169.4002 C.3     1  UNL1        0.1025
      2 C         140.0314  141.0791  168.3458 C.3     1  UNL1        0.0327
      3 C         140.2925  140.2688  167.1107 C.3     1  UNL1        0.0943
      4 N         141.6133  139.5811  166.9302 N.am    1  UNL1       -0.2761
      5 C         141.8744  138.7708  165.6952 C.2     1  UNL1        0.2490
      6 O         143.1952  138.0832  165.5147 O.2     1  UNL1       -0.2699
      7 C         142.6731  139.7038  167.9847 C.3     1  UNL1        0.0943
      8 C         142.4120  140.5142  169.2197 C.3     1  UNL1        0.0327
      9 C         140.8146  138.6481  164.6407 C.ar    1  UNL1        0.0542
     10 C         139.7429  137.6069  164.7721 C.ar    1  UNL1        0.0061
     11 C         138.6832  137.4843  163.7176 C.ar    1  UNL1        0.0198
     12 C         138.6952  138.4027  162.5318 C.ar    1  UNL1        0.0892
     13 N         137.7887  138.5179  161.3422 N.ar    1  UNL1       -0.2245
     14 C         138.3003  139.6302  160.4756 C.ar    1  UNL1        0.1567
     15 N         137.6954  140.0897  159.1821 N.pl3   1  UNL1       -0.3375
     16 S         139.5229  140.2025  161.1296 S.2     1  UNL1       -0.0520
     17 C         139.7670  139.4439  162.4004 C.ar    1  UNL1        0.0498
     18 C         140.8267  139.5665  163.4549 C.ar    1  UNL1        0.0126
     19 H         136.8877  139.6487  158.8323 H       1  UNL1        0.1442
     20 H         138.1062  140.8323  158.6830 H       1  UNL1        0.1442
     21 C         140.8301  142.0121  170.6351 C.2     1  UNL1        0.3167
     22 O         139.4204  142.3081  171.0539 O.2     1  UNL1       -0.2501
     23 C         143.0275  143.3871  170.8115 C.3     1  UNL1        0.2556
     24 O         141.9786  142.5265  171.4514 O.3     1  UNL1       -0.4444
@<TRIPOS>BOND
     1    23    24    1
     2    24    21    1
     3    21    22    2
     4    21     1    1
     5     1     2    1
     6     2     3    1
     7     3     4    1
     8     4     5   am
     9     5     6    2
    10     5     9    1
    11     9    10   ar
    12    10    11   ar
    13    11    12   ar
    14    12    13   ar
    15    13    14   ar
    16    14    15    1
    17    14    16   ar
    18    16    17   ar
    19    17    18   ar
    20     4     7    1
    21     7     8    1
    22     8     1    1
    23    18     9   ar
    24    17    12   ar
    25    15    19    1
    26    15    20    1
@<TRIPOS>MOLECULE
*****
 24 26 0 0 0
SMALL
GASTEIGER

@<TRIPOS>ATOM
      1 C         143.6433  139.6160  161.7727 C.3     1  UNL1        0.1025
      2 C         142.5789  139.3822  162.8034 C.3     1  UNL1        0.0327
      3 C         142.5280  140.2356  164.0360 C.3     1  UNL1        0.0943
      4 N         143.5415  141.3229  164.2378 N.am    1  UNL1       -0.2761
      5 C         143.4907  142.1762  165.4703 C.2     1  UNL1        0.2490
      6 O         144.5042  143.2635  165.6721 O.2     1  UNL1       -0.2699
      7 C         144.6060  141.5567  163.2070 C.3     1  UNL1        0.0943
      8 C         144.6568  140.7033  161.9745 C.3     1  UNL1        0.0327
      9 C         142.4262  141.9424  166.5010 C.ar    1  UNL1        0.0542
     10 C         141.1656  142.7549  166.4750 C.ar    1  UNL1        0.0061
     11 C         140.1013  142.5210  167.5057 C.ar    1  UNL1        0.0198
     12 C         140.2976  141.4748  168.5625 C.ar    1  UNL1        0.0892
     13 N         139.4313  141.0230  169.7007 N.ar    1  UNL1       -0.2245
     14 C         140.1566  139.9313  170.4302 C.ar    1  UNL1        0.1567
     15 N         139.6554  139.1922  171.6355 N.pl3   1  UNL1       -0.3375
     16 S         141.4711  139.7084  169.7428 S.2     1  UNL1       -0.0520
     17 C         141.5582  140.6623  168.5885 C.ar    1  UNL1        0.0498
     18 C         142.6225  140.8962  167.5578 C.ar    1  UNL1        0.0126
     19 H         138.7744  139.4114  172.0162 H       1  UNL1        0.1442
     20 H         140.2075  138.4878  172.0458 H       1  UNL1        0.1442
     21 C         143.6942  138.7627  160.5402 C.2     1  UNL1        0.3167
     22 O         143.3435  137.3064  160.6212 O.2     1  UNL1       -0.2501
     23 C         143.2288  140.4069  158.5831 C.3     1  UNL1        0.2556
     24 O         144.0956  139.3654  159.2266 O.3     1  UNL1       -0.4444
@<TRIPOS>BOND
     1    23    24    1
     2    24    21    1
     3    21    22    2
     4    21     1    1
     5     1     2    1
     6     2     3    1
     7     3     4    1
     8     4     5   am
     9     5     6    2
    10     5     9    1
    11     9    10   ar
    12    10    11   ar
    13    11    12   ar
    14    12    13   ar
    15    13    14   ar
    16    14    15    1
    17    14    16   ar
    18    16    17   ar
    19    17    18   ar
    20     4     7    1
    21     7     8    1
    22     8     1    1
    23    18     9   ar
    24    17    12   ar
    25    15    19    1
    26    15    20    1
@<TRIPOS>MOLECULE
*****
 24 26 0 0 0
SMALL
GASTEIGER

@<TRIPOS>ATOM
      1 C         139.4630  139.9182  167.8492 C.3     1  UNL1        0.1025
      2 C         140.6681  140.1606  166.9897 C.3     1  UNL1        0.0327
      3 C         140.7026  139.6413  165.5828 C.3     1  UNL1        0.0943
      4 N         139.5320  138.8796  165.0356 N.am    1  UNL1       -0.2761
      5 C         139.5665  138.3602  163.6288 C.2     1  UNL1        0.2490
      6 O         138.3959  137.5985  163.0816 O.2     1  UNL1       -0.2699
      7 C         138.3268  138.6372  165.8952 C.3     1  UNL1        0.0943
      8 C         138.2923  139.1565  167.3020 C.3     1  UNL1        0.0327
      9 C         140.7717  138.6026  162.7692 C.ar    1  UNL1        0.0542
     10 C         141.9733  137.7136  162.8944 C.ar    1  UNL1        0.0061
     11 C         143.1784  137.9560  162.0348 C.ar    1  UNL1        0.0198
     12 C         143.1819  139.0874  161.0500 C.ar    1  UNL1        0.0892
     13 N         144.2169  139.5669  160.0758 N.ar    1  UNL1       -0.2245
     14 C         143.6549  140.7523  159.3486 C.ar    1  UNL1        0.1567
     15 N         144.3526  141.5455  158.2836 N.pl3   1  UNL1       -0.3375
     16 S         142.2726  141.0054  159.8732 S.2     1  UNL1       -0.0520
     17 C         141.9802  139.9763  160.9247 C.ar    1  UNL1        0.0498
     18 C         140.7752  139.7340  161.7843 C.ar    1  UNL1        0.0126
     19 H         145.2647  141.3005  158.0053 H       1  UNL1        0.1442
     20 H         143.8986  142.3111  157.8630 H       1  UNL1        0.1442
     21 C         139.4284  140.4376  169.2560 C.2     1  UNL1        0.3167
     22 O         138.3319  140.0108  170.1864 O.2     1  UNL1       -0.2501
     23 C         141.5707  140.8969  170.6524 C.3     1  UNL1        0.2556
     24 O         140.4905  141.3837  169.7325 O.3     1  UNL1       -0.4444
@<TRIPOS>BOND
     1    23    24    1
     2    24    21    1
     3    21    22    2
     4    21     1    1
     5     1     2    1
     6     2     3    1
     7     3     4    1
     8     4     5   am
     9     5     6    2
    10     5     9    1
    11     9    10   ar
    12    10    11   ar
    13    11    12   ar
    14    12    13   ar
    15    13    14   ar
    16    14    15    1
    17    14    16   ar
    18    16    17   ar
    19    17    18   ar
    20     4     7    1
    21     7     8    1
    22     8     1    1
    23    18     9   ar
    24    17    12   ar
    25    15    19    1
    26    15    20    1
@<TRIPOS>MOLECULE
*****
 24 26 0 0 0
SMALL
GASTEIGER

@<TRIPOS>ATOM
      1 C         140.7343  140.7959  167.6292 C.3     1  UNL1        0.1025
      2 C         139.9763  141.3764  166.4723 C.3     1  UNL1        0.0327
      3 C         140.6827  142.2423  165.4715 C.3     1  UNL1        0.0943
      4 N         142.1470  142.5276  165.6278 N.am    1  UNL1       -0.2761
      5 C         142.8533  143.3934  164.6271 C.2     1  UNL1        0.2490
      6 O         144.3176  143.6787  164.7833 O.2     1  UNL1       -0.2699
      7 C         142.9050  141.9470  166.7848 C.3     1  UNL1        0.0943
      8 C         142.1986  141.0812  167.7854 C.3     1  UNL1        0.0327
      9 C         142.0954  143.9740  163.4701 C.ar    1  UNL1        0.0542
     10 C         141.2295  145.1821  163.6713 C.ar    1  UNL1        0.0061
     11 C         140.4716  145.7626  162.5143 C.ar    1  UNL1        0.0198
     12 C         140.5796  145.1350  161.1563 C.ar    1  UNL1        0.0892
     13 N         139.9551  145.4825  159.8374 N.ar    1  UNL1       -0.2245
     14 C         140.4351  144.4891  158.8212 C.ar    1  UNL1        0.1567
     15 N         140.0599  144.4618  157.3691 N.pl3   1  UNL1       -0.3375
     16 S         141.3562  143.5276  159.5120 S.2     1  UNL1       -0.0520
     17 C         141.4455  143.9268  160.9551 C.ar    1  UNL1        0.0498
     18 C         142.2034  143.3463  162.1121 C.ar    1  UNL1        0.0126
     19 H         139.4445  145.1396  157.0069 H       1  UNL1        0.1442
     20 H         140.4289  143.7662  156.7783 H       1  UNL1        0.1442
     21 C         140.0280  139.9300  168.6298 C.2     1  UNL1        0.3167
     22 O         138.6701  139.3753  168.3157 O.2     1  UNL1       -0.2501
     23 C         140.6233  140.6160  171.0640 C.3     1  UNL1        0.2556
     24 O         140.6794  139.6189  169.9447 O.3     1  UNL1       -0.4444
@<TRIPOS>BOND
     1    23    24    1
     2    24    21    1
     3    21    22    2
     4    21     1    1
     5     1     2    1
     6     2     3    1
     7     3     4    1
     8     4     5   am
     9     5     6    2
    10     5     9    1
    11     9    10   ar
    12    10    11   ar
    13    11    12   ar
    14    12    13   ar
    15    13    14   ar
    16    14    15    1
    17    14    16   ar
    18    16    17   ar
    19    17    18   ar
    20     4     7    1
    21     7     8    1
    22     8     1    1
    23    18     9   ar
    24    17    12   ar
    25    15    19    1
    26    15    20    1
