@<TRIPOS>MOLECULE
*****
 35 39 0 0 0
SMALL
GASTEIGER

@<TRIPOS>ATOM
      1 C         139.9384  138.4257  163.1572 C.2     1  UNL1        0.2294
      2 O         138.4810  138.2833  162.8324 O.2     1  UNL1       -0.2745
      3 N         140.8907  138.9443  162.1207 N.am    1  UNL1       -0.2764
      4 C         140.3855  139.3204  160.7593 C.3     1  UNL1        0.1107
      5 C         141.3378  139.8389  159.7228 C.3     1  UNL1        0.0939
      6 N         142.7952  139.9813  160.0477 N.3     1  UNL1       -0.2695
      7 C         143.3004  139.6053  161.4091 C.3     1  UNL1        0.0939
      8 C         142.3481  139.0867  162.4456 C.3     1  UNL1        0.1107
      9 C         140.4437  138.0497  164.5186 C.3     1  UNL1        0.1000
     10 C         141.0644  136.7026  164.7424 C.3     1  UNL1        0.0144
     11 C         138.0350  137.9867  166.3058 C.3     1  UNL1        0.0518
     12 C         139.1239  138.9892  166.5497 C.ar    1  UNL1        0.0575
     13 N         139.0084  139.9602  167.6872 N.ar    1  UNL1       -0.2311
     14 C         140.0972  140.9626  167.9310 C.ar    1  UNL1        0.1668
     15 C         141.3016  140.9941  167.0374 C.ar    1  UNL1        0.0386
     16 C         141.4171  140.0231  165.8999 C.ar    1  UNL1        0.0005
     17 C         140.3282  139.0207  165.6561 C.ar    1  UNL1       -0.0001
     18 N         139.9818  141.9336  169.0685 N.ar    1  UNL1       -0.1708
     19 C         140.4369  143.3629  169.0572 C.ar    1  UNL1        0.2272
     20 N         140.1273  143.9584  170.3987 N.ar    1  UNL1       -0.1044
     21 N         139.4808  142.8973  171.2390 N.ar    1  UNL1       -0.0222
     22 N         139.3909  141.6458  170.4168 N.ar    1  UNL1       -0.0371
     23 C         143.7474  140.4999  159.0112 C.3     1  UNL1        0.0769
     24 C         143.9734  141.9762  158.8719 C.3     1  UNL1        0.0433
     25 C         143.0193  142.9442  159.5067 C.ar    1  UNL1       -0.0249
     26 C         141.8457  143.4602  158.7282 C.ar    1  UNL1       -0.0043
     27 C         140.8916  144.4281  159.3630 C.ar    1  UNL1        0.0059
     28 C         141.1112  144.8799  160.7763 C.ar    1  UNL1        0.0748
     29 C         142.2849  144.3639  161.5549 C.ar    1  UNL1        0.0233
     30 C         143.2389  143.3960  160.9202 C.ar    1  UNL1       -0.0260
     31 C         144.4127  142.8799  161.6987 C.3     1  UNL1        0.0305
     32 C         142.2443  144.9839  162.9202 C.3     1  UNL1        0.2352
     33 O         141.0456  145.8832  162.9853 O.3     1  UNL1       -0.4404
     34 C         140.3453  145.8190  161.6604 C.2     1  UNL1        0.3413
     35 O         139.0980  146.5631  161.2854 O.2     1  UNL1       -0.2449
@<TRIPOS>BOND
     1    11    12    1
     2    12    13   ar
     3    13    14   ar
     4    14    18    1
     5    18    19   ar
     6    19    20   ar
     7    20    21   ar
     8    21    22   ar
     9    14    15   ar
    10    15    16   ar
    11    16    17   ar
    12    17     9    1
    13     9    10    1
    14     9     1    1
    15     1     2    2
    16     1     3   am
    17     3     4    1
    18     4     5    1
    19     5     6    1
    20     6    23    1
    21    23    24    1
    22    24    25    1
    23    25    26   ar
    24    26    27   ar
    25    27    28   ar
    26    28    29   ar
    27    29    30   ar
    28    30    31    1
    29    29    32    1
    30    32    33    1
    31    33    34    1
    32    34    35    2
    33     6     7    1
    34     7     8    1
    35    17    12   ar
    36     8     3    1
    37    22    18   ar
    38    30    25   ar
    39    34    28    1
@<TRIPOS>MOLECULE
*****
 35 39 0 0 0
SMALL
GASTEIGER

@<TRIPOS>ATOM
      1 C         139.6814  138.4710  162.9946 C.2     1  UNL1        0.2294
      2 O         138.2485  138.9140  162.9725 O.2     1  UNL1       -0.2745
      3 N         140.4590  138.3831  161.7150 N.am    1  UNL1       -0.2764
      4 C         139.8038  138.7381  160.4132 C.3     1  UNL1        0.1107
      5 C         140.5815  138.6501  159.1336 C.3     1  UNL1        0.0939
      6 N         142.0144  138.2071  159.1557 N.3     1  UNL1       -0.2695
      7 C         142.6697  137.8521  160.4574 C.3     1  UNL1        0.0939
      8 C         141.8920  137.9401  161.7371 C.3     1  UNL1        0.1107
      9 C         140.3367  138.1160  164.2964 C.3     1  UNL1        0.1000
     10 C         141.0715  136.8158  164.4360 C.3     1  UNL1        0.0144
     11 C         142.4907  140.1613  164.7163 C.3     1  UNL1        0.0518
     12 C         141.3342  140.0838  165.6684 C.ar    1  UNL1        0.0575
     13 N         141.2547  141.0290  166.8305 N.ar    1  UNL1       -0.2311
     14 C         140.0981  140.9514  167.7825 C.ar    1  UNL1        0.1668
     15 C         139.0211  139.9287  167.5725 C.ar    1  UNL1        0.0386
     16 C         139.1006  138.9835  166.4105 C.ar    1  UNL1        0.0005
     17 C         140.2572  139.0611  165.4584 C.ar    1  UNL1       -0.0001
     18 N         140.0186  141.8965  168.9446 N.ar    1  UNL1       -0.1708
     19 C         140.4048  143.3459  168.9302 C.ar    1  UNL1        0.2272
     20 N         140.1638  143.9034  170.3018 N.ar    1  UNL1       -0.1044
     21 N         139.6287  142.7987  171.1638 N.ar    1  UNL1       -0.0222
     22 N         139.5390  141.5583  170.3250 N.ar    1  UNL1       -0.0371
     23 C         142.7921  138.1192  157.8760 C.3     1  UNL1        0.0769
     24 C         142.2467  137.3352  156.7193 C.3     1  UNL1        0.0433
     25 C         142.4141  135.8451  156.6778 C.ar    1  UNL1       -0.0249
     26 C         143.3504  135.1686  157.6345 C.ar    1  UNL1       -0.0043
     27 C         143.5178  133.6785  157.5930 C.ar    1  UNL1        0.0059
     28 C         142.7487  132.8650  156.5947 C.ar    1  UNL1        0.0748
     29 C         141.8123  133.5415  155.6379 C.ar    1  UNL1        0.0233
     30 C         141.6450  135.0315  155.6794 C.ar    1  UNL1       -0.0260
     31 C         140.7085  135.7081  154.7226 C.3     1  UNL1        0.0305
     32 C         141.1926  132.4857  154.7712 C.3     1  UNL1        0.2352
     33 O         141.7460  131.1566  155.1924 O.3     1  UNL1       -0.4404
     34 C         142.7077  131.3910  156.3194 C.2     1  UNL1        0.3413
     35 O         143.4909  130.3366  157.0438 O.2     1  UNL1       -0.2449
@<TRIPOS>BOND
     1    11    12    1
     2    12    13   ar
     3    13    14   ar
     4    14    18    1
     5    18    19   ar
     6    19    20   ar
     7    20    21   ar
     8    21    22   ar
     9    14    15   ar
    10    15    16   ar
    11    16    17   ar
    12    17     9    1
    13     9    10    1
    14     9     1    1
    15     1     2    2
    16     1     3   am
    17     3     4    1
    18     4     5    1
    19     5     6    1
    20     6    23    1
    21    23    24    1
    22    24    25    1
    23    25    26   ar
    24    26    27   ar
    25    27    28   ar
    26    28    29   ar
    27    29    30   ar
    28    30    31    1
    29    29    32    1
    30    32    33    1
    31    33    34    1
    32    34    35    2
    33     6     7    1
    34     7     8    1
    35    17    12   ar
    36     8     3    1
    37    22    18   ar
    38    30    25   ar
    39    34    28    1
@<TRIPOS>MOLECULE
*****
 35 39 0 0 0
SMALL
GASTEIGER

@<TRIPOS>ATOM
      1 C         139.6380  138.4413  163.1141 C.2     1  UNL1        0.2294
      2 O         138.1582  138.2773  162.9314 O.2     1  UNL1       -0.2745
      3 N         140.4801  138.9586  161.9857 N.am    1  UNL1       -0.2764
      4 C         139.8426  139.3118  160.6747 C.3     1  UNL1        0.1107
      5 C         140.6848  139.8291  159.5464 C.3     1  UNL1        0.0939
      6 N         142.1646  139.9932  159.7291 N.3     1  UNL1       -0.2695
      7 C         142.8022  139.6400  161.0401 C.3     1  UNL1        0.0939
      8 C         141.9599  139.1227  162.1684 C.3     1  UNL1        0.1107
      9 C         140.2756  138.0881  164.4251 C.3     1  UNL1        0.1000
     10 C         140.9888  136.7781  164.5833 C.3     1  UNL1        0.0144
     11 C         138.0024  137.9111  166.3747 C.3     1  UNL1        0.0518
     12 C         139.0633  138.9565  166.5526 C.ar    1  UNL1        0.0575
     13 N         138.9877  139.9133  167.7053 N.ar    1  UNL1       -0.2311
     14 C         140.0487  140.9586  167.8832 C.ar    1  UNL1        0.1668
     15 C         141.1853  141.0471  166.9084 C.ar    1  UNL1        0.0386
     16 C         141.2609  140.0903  165.7557 C.ar    1  UNL1        0.0005
     17 C         140.1999  139.0450  165.5778 C.ar    1  UNL1       -0.0001
     18 N         139.9730  141.9154  169.0359 N.ar    1  UNL1       -0.1708
     19 C         140.4399  143.3409  169.0306 C.ar    1  UNL1        0.2272
     20 N         140.1726  143.9213  170.3877 N.ar    1  UNL1       -0.1044
     21 N         139.5406  142.8546  171.2318 N.ar    1  UNL1       -0.0222
     22 N         139.4172  141.6148  170.3963 N.ar    1  UNL1       -0.0371
     23 C         143.0068  140.5105  158.6007 C.3     1  UNL1        0.0769
     24 C         143.5176  141.9204  158.6314 C.3     1  UNL1        0.0433
     25 C         143.4971  142.6979  159.9141 C.ar    1  UNL1       -0.0249
     26 C         144.6905  142.6778  160.8225 C.ar    1  UNL1       -0.0043
     27 C         144.6700  143.4552  162.1051 C.ar    1  UNL1        0.0059
     28 C         143.4560  144.2528  162.4793 C.ar    1  UNL1        0.0748
     29 C         142.2625  144.2729  161.5709 C.ar    1  UNL1        0.0233
     30 C         142.2830  143.4955  160.2883 C.ar    1  UNL1       -0.0260
     31 C         141.0895  143.5156  159.3798 C.3     1  UNL1        0.0305
     32 C         141.2158  145.1440  162.2000 C.3     1  UNL1        0.2352
     33 O         141.7624  145.6621  163.4971 O.3     1  UNL1       -0.4404
     34 C         143.1469  145.1114  163.6698 C.2     1  UNL1        0.3413
     35 O         144.0616  145.3732  164.8294 O.2     1  UNL1       -0.2449
@<TRIPOS>BOND
     1    11    12    1
     2    12    13   ar
     3    13    14   ar
     4    14    18    1
     5    18    19   ar
     6    19    20   ar
     7    20    21   ar
     8    21    22   ar
     9    14    15   ar
    10    15    16   ar
    11    16    17   ar
    12    17     9    1
    13     9    10    1
    14     9     1    1
    15     1     2    2
    16     1     3   am
    17     3     4    1
    18     4     5    1
    19     5     6    1
    20     6    23    1
    21    23    24    1
    22    24    25    1
    23    25    26   ar
    24    26    27   ar
    25    27    28   ar
    26    28    29   ar
    27    29    30   ar
    28    30    31    1
    29    29    32    1
    30    32    33    1
    31    33    34    1
    32    34    35    2
    33     6     7    1
    34     7     8    1
    35    17    12   ar
    36     8     3    1
    37    22    18   ar
    38    30    25   ar
    39    34    28    1
@<TRIPOS>MOLECULE
*****
 35 39 0 0 0
SMALL
GASTEIGER

@<TRIPOS>ATOM
      1 C         143.9136  139.8705  162.8234 C.2     1  UNL1        0.2294
      2 O         143.9350  138.3833  162.6286 O.2     1  UNL1       -0.2745
      3 N         143.2992  140.7548  161.7791 N.am    1  UNL1       -0.2764
      4 C         142.7063  140.1520  160.5400 C.3     1  UNL1        0.1107
      5 C         142.0919  141.0364  159.4959 C.3     1  UNL1        0.0939
      6 N         142.0704  142.5236  159.6906 N.3     1  UNL1       -0.2695
      7 C         142.6633  143.1264  160.9296 C.3     1  UNL1        0.0939
      8 C         143.2777  142.2419  161.9738 C.3     1  UNL1        0.1107
      9 C         144.5065  140.4733  164.0623 C.3     1  UNL1        0.1000
     10 C         145.8755  141.0847  164.0177 C.3     1  UNL1        0.0144
     11 C         143.6477  143.0613  165.3131 C.3     1  UNL1        0.0518
     12 C         143.3009  141.7588  165.9714 C.ar    1  UNL1        0.0575
     13 N         142.5248  141.7502  167.2549 N.ar    1  UNL1       -0.2311
     14 C         142.1781  140.4477  167.9130 C.ar    1  UNL1        0.1668
     15 C         142.6075  139.1537  167.2876 C.ar    1  UNL1        0.0386
     16 C         143.3836  139.1622  166.0040 C.ar    1  UNL1        0.0005
     17 C         143.7303  140.4648  165.3459 C.ar    1  UNL1       -0.0001
     18 N         141.4020  140.4392  169.1966 N.ar    1  UNL1       -0.1708
     19 C         141.7969  141.1260  170.4703 C.ar    1  UNL1        0.2272
     20 N         140.7336  140.8536  171.4927 N.ar    1  UNL1       -0.1044
     21 N         139.6817  139.9984  170.8510 N.ar    1  UNL1       -0.0222
     22 N         140.0947  139.7422  169.4319 N.ar    1  UNL1       -0.0371
     23 C         141.4560  143.4079  158.6463 C.3     1  UNL1        0.0769
     24 C         140.2240  144.2015  158.9659 C.3     1  UNL1        0.0433
     25 C         139.7522  144.3151  160.3854 C.ar    1  UNL1       -0.0249
     26 C         140.1387  145.5061  161.2111 C.ar    1  UNL1       -0.0043
     27 C         139.6670  145.6197  162.6305 C.ar    1  UNL1        0.0059
     28 C         138.8087  144.5421  163.2240 C.ar    1  UNL1        0.0748
     29 C         138.4222  143.3510  162.3983 C.ar    1  UNL1        0.0233
     30 C         138.8940  143.2374  160.9789 C.ar    1  UNL1       -0.0260
     31 C         138.5075  142.0463  160.1531 C.3     1  UNL1        0.0305
     32 C         137.5726  142.4536  163.2484 C.3     1  UNL1        0.2352
     33 O         137.4339  143.0901  164.5995 O.3     1  UNL1       -0.4404
     34 C         138.1979  144.3809  164.5845 C.2     1  UNL1        0.3413
     35 O         138.3282  145.3416  165.7290 O.2     1  UNL1       -0.2449
@<TRIPOS>BOND
     1    11    12    1
     2    12    13   ar
     3    13    14   ar
     4    14    18    1
     5    18    19   ar
     6    19    20   ar
     7    20    21   ar
     8    21    22   ar
     9    14    15   ar
    10    15    16   ar
    11    16    17   ar
    12    17     9    1
    13     9    10    1
    14     9     1    1
    15     1     2    2
    16     1     3   am
    17     3     4    1
    18     4     5    1
    19     5     6    1
    20     6    23    1
    21    23    24    1
    22    24    25    1
    23    25    26   ar
    24    26    27   ar
    25    27    28   ar
    26    28    29   ar
    27    29    30   ar
    28    30    31    1
    29    29    32    1
    30    32    33    1
    31    33    34    1
    32    34    35    2
    33     6     7    1
    34     7     8    1
    35    17    12   ar
    36     8     3    1
    37    22    18   ar
    38    30    25   ar
    39    34    28    1
@<TRIPOS>MOLECULE
*****
 35 39 0 0 0
SMALL
GASTEIGER

@<TRIPOS>ATOM
      1 C         138.9525  138.7735  163.6260 C.2     1  UNL1        0.2294
      2 O         138.1186  137.8314  162.8093 O.2     1  UNL1       -0.2745
      3 N         138.8248  140.2545  163.4254 N.am    1  UNL1       -0.2764
      4 C         137.8632  140.7935  162.4081 C.3     1  UNL1        0.1107
      5 C         137.7356  142.2745  162.2075 C.3     1  UNL1        0.0939
      6 N         138.5695  143.2166  163.0242 N.3     1  UNL1       -0.2695
      7 C         139.5310  142.6777  164.0416 C.3     1  UNL1        0.0939
      8 C         139.6587  141.1966  164.2421 C.3     1  UNL1        0.1107
      9 C         139.9141  138.2346  164.6434 C.3     1  UNL1        0.1000
     10 C         140.6866  136.9816  164.3551 C.3     1  UNL1        0.0144
     11 C         142.6281  139.2514  165.4177 C.3     1  UNL1        0.0518
     12 C         141.4600  139.4571  166.3361 C.ar    1  UNL1        0.0575
     13 N         141.6490  140.1712  167.6416 N.ar    1  UNL1       -0.2311
     14 C         140.4809  140.3768  168.5599 C.ar    1  UNL1        0.1668
     15 C         139.1238  139.8684  168.1727 C.ar    1  UNL1        0.0386
     16 C         138.9349  139.1543  166.8672 C.ar    1  UNL1        0.0005
     17 C         140.1030  138.9487  165.9489 C.ar    1  UNL1       -0.0001
     18 N         140.6698  141.0909  169.8654 N.ar    1  UNL1       -0.1708
     19 C         141.9648  141.2456  170.6064 C.ar    1  UNL1        0.2272
     20 N         141.6922  142.0260  171.8581 N.ar    1  UNL1       -0.1044
     21 N         140.2289  142.3536  171.8908 N.ar    1  UNL1       -0.0222
     22 N         139.5969  141.7756  170.6592 N.ar    1  UNL1       -0.0371
     23 C         138.4418  144.6976  162.8236 C.3     1  UNL1        0.0769
     24 C         139.5521  145.4642  162.1683 C.3     1  UNL1        0.0433
     25 C         140.6728  144.7309  161.4925 C.ar    1  UNL1       -0.0249
     26 C         140.4863  144.1889  160.1065 C.ar    1  UNL1       -0.0043
     27 C         141.6068  143.4557  159.4307 C.ar    1  UNL1        0.0059
     28 C         142.9140  143.2644  160.1412 C.ar    1  UNL1        0.0748
     29 C         143.1006  143.8064  161.5273 C.ar    1  UNL1        0.0233
     30 C         141.9800  144.5397  162.2030 C.ar    1  UNL1       -0.0260
     31 C         142.1665  145.0817  163.5892 C.3     1  UNL1        0.0305
     32 C         144.4913  143.4663  161.9748 C.3     1  UNL1        0.2352
     33 O         145.1642  142.7141  160.8652 O.3     1  UNL1       -0.4404
     34 C         144.1894  142.5893  159.7319 C.2     1  UNL1        0.3413
     35 O         144.4452  141.9088  158.4198 O.2     1  UNL1       -0.2449
@<TRIPOS>BOND
     1    11    12    1
     2    12    13   ar
     3    13    14   ar
     4    14    18    1
     5    18    19   ar
     6    19    20   ar
     7    20    21   ar
     8    21    22   ar
     9    14    15   ar
    10    15    16   ar
    11    16    17   ar
    12    17     9    1
    13     9    10    1
    14     9     1    1
    15     1     2    2
    16     1     3   am
    17     3     4    1
    18     4     5    1
    19     5     6    1
    20     6    23    1
    21    23    24    1
    22    24    25    1
    23    25    26   ar
    24    26    27   ar
    25    27    28   ar
    26    28    29   ar
    27    29    30   ar
    28    30    31    1
    29    29    32    1
    30    32    33    1
    31    33    34    1
    32    34    35    2
    33     6     7    1
    34     7     8    1
    35    17    12   ar
    36     8     3    1
    37    22    18   ar
    38    30    25   ar
    39    34    28    1
@<TRIPOS>MOLECULE
*****
 35 39 0 0 0
SMALL
GASTEIGER

@<TRIPOS>ATOM
      1 C         143.9172  140.4276  159.0688 C.2     1  UNL1        0.2294
      2 O         143.7128  138.9542  158.8758 O.2     1  UNL1       -0.2745
      3 N         144.0974  140.9853  160.4495 N.am    1  UNL1       -0.2764
      4 C         144.0730  140.0696  161.6374 C.3     1  UNL1        0.1107
      5 C         144.2531  140.6273  163.0181 C.3     1  UNL1        0.0939
      6 N         144.4576  142.1008  163.2111 N.3     1  UNL1       -0.2695
      7 C         144.4820  143.0165  162.0233 C.3     1  UNL1        0.0939
      8 C         144.3018  142.4587  160.6425 C.3     1  UNL1        0.1107
      9 C         143.9416  141.3434  157.8810 C.3     1  UNL1        0.1000
     10 C         142.6924  142.0590  157.4601 C.3     1  UNL1        0.0144
     11 C         144.5013  139.6857  155.4441 C.3     1  UNL1        0.0518
     12 C         145.4951  140.7146  155.8957 C.ar    1  UNL1        0.0575
     13 N         146.7687  140.9146  155.1289 N.ar    1  UNL1       -0.2311
     14 C         147.7623  141.9435  155.5806 C.ar    1  UNL1        0.1668
     15 C         147.4824  142.7723  156.7991 C.ar    1  UNL1        0.0386
     16 C         146.2089  142.5722  157.5659 C.ar    1  UNL1        0.0005
     17 C         145.2152  141.5434  157.1142 C.ar    1  UNL1       -0.0001
     18 N         149.0359  142.1435  154.8138 N.ar    1  UNL1       -0.1708
     19 C         149.1603  142.7825  153.4624 C.ar    1  UNL1        0.2272
     20 N         150.6100  142.7736  153.0772 N.ar    1  UNL1       -0.1044
     21 N         151.3815  142.1292  154.1904 N.ar    1  UNL1       -0.0222
     22 N         150.4087  141.7397  155.2638 N.ar    1  UNL1       -0.0371
     23 C         144.6377  142.6584  164.5919 C.3     1  UNL1        0.0769
     24 C         143.4628  143.2291  165.3294 C.3     1  UNL1        0.0433
     25 C         142.0767  143.0519  164.7839 C.ar    1  UNL1       -0.0249
     26 C         141.3404  141.7649  165.0103 C.ar    1  UNL1       -0.0043
     27 C         139.9544  141.5877  164.4648 C.ar    1  UNL1        0.0059
     28 C         139.3047  142.6976  163.6928 C.ar    1  UNL1        0.0748
     29 C         140.0411  143.9847  163.4664 C.ar    1  UNL1        0.0233
     30 C         141.4271  144.1619  164.0119 C.ar    1  UNL1       -0.0260
     31 C         142.1635  145.4490  163.7854 C.3     1  UNL1        0.0305
     32 C         139.1508  144.8947  162.6729 C.3     1  UNL1        0.2352
     33 O         137.8643  144.1699  162.4091 O.3     1  UNL1       -0.4404
     34 C         137.9594  142.8121  163.0394 C.2     1  UNL1        0.3413
     35 O         136.8959  141.7545  163.0197 O.2     1  UNL1       -0.2449
@<TRIPOS>BOND
     1    11    12    1
     2    12    13   ar
     3    13    14   ar
     4    14    18    1
     5    18    19   ar
     6    19    20   ar
     7    20    21   ar
     8    21    22   ar
     9    14    15   ar
    10    15    16   ar
    11    16    17   ar
    12    17     9    1
    13     9    10    1
    14     9     1    1
    15     1     2    2
    16     1     3   am
    17     3     4    1
    18     4     5    1
    19     5     6    1
    20     6    23    1
    21    23    24    1
    22    24    25    1
    23    25    26   ar
    24    26    27   ar
    25    27    28   ar
    26    28    29   ar
    27    29    30   ar
    28    30    31    1
    29    29    32    1
    30    32    33    1
    31    33    34    1
    32    34    35    2
    33     6     7    1
    34     7     8    1
    35    17    12   ar
    36     8     3    1
    37    22    18   ar
    38    30    25   ar
    39    34    28    1
@<TRIPOS>MOLECULE
*****
 35 39 0 0 0
SMALL
GASTEIGER

@<TRIPOS>ATOM
      1 C         139.7513  139.5107  166.0939 C.2     1  UNL1        0.2294
      2 O         139.1564  139.9701  167.3919 O.2     1  UNL1       -0.2745
      3 N         141.0880  140.0314  165.6556 N.am    1  UNL1       -0.2764
      4 C         141.8298  141.0115  166.5153 C.3     1  UNL1        0.1107
      5 C         143.1665  141.5321  166.0769 C.3     1  UNL1        0.0939
      6 N         143.7614  141.0726  164.7788 N.3     1  UNL1       -0.2695
      7 C         143.0196  140.0926  163.9191 C.3     1  UNL1        0.0939
      8 C         141.6829  139.5719  164.3575 C.3     1  UNL1        0.1107
      9 C         139.0095  138.5306  165.2341 C.3     1  UNL1        0.1000
     10 C         138.4025  137.3039  165.8478 C.3     1  UNL1        0.0144
     11 C         137.7254  141.0560  164.2475 C.3     1  UNL1        0.0518
     12 C         138.2326  140.0400  163.2673 C.ar    1  UNL1        0.0575
     13 N         138.0978  140.2867  161.7939 N.ar    1  UNL1       -0.2311
     14 C         138.6050  139.2707  160.8139 C.ar    1  UNL1        0.1668
     15 C         139.2470  138.0080  161.3072 C.ar    1  UNL1        0.0386
     16 C         139.3818  137.7613  162.7806 C.ar    1  UNL1        0.0005
     17 C         138.8746  138.7773  163.7607 C.ar    1  UNL1       -0.0001
     18 N         138.4702  139.5174  159.3405 N.ar    1  UNL1       -0.1708
     19 C         139.4309  139.0681  158.2798 C.ar    1  UNL1        0.2272
     20 N         138.9054  139.5297  156.9528 N.ar    1  UNL1       -0.1044
     21 N         137.6200  140.2644  157.1933 N.ar    1  UNL1       -0.0222
     22 N         137.3510  140.2568  158.6691 N.ar    1  UNL1       -0.0371
     23 C         145.0981  141.5933  164.3405 C.3     1  UNL1        0.0769
     24 C         145.1985  142.9308  163.6689 C.3     1  UNL1        0.0433
     25 C         143.9693  143.5827  163.1083 C.ar    1  UNL1       -0.0249
     26 C         143.1581  144.5123  163.9613 C.ar    1  UNL1       -0.0043
     27 C         141.9290  145.1642  163.4007 C.ar    1  UNL1        0.0059
     28 C         141.5111  144.8866  161.9872 C.ar    1  UNL1        0.0748
     29 C         142.3224  143.9569  161.1341 C.ar    1  UNL1        0.0233
     30 C         143.5515  143.3050  161.6946 C.ar    1  UNL1       -0.0260
     31 C         144.3628  142.3754  160.8416 C.3     1  UNL1        0.0305
     32 C         141.6688  143.8751  159.7865 C.3     1  UNL1        0.2352
     33 O         140.4535  144.7542  159.8067 O.3     1  UNL1       -0.4404
     34 C         140.3561  145.3793  161.1667 C.2     1  UNL1        0.3413
     35 O         139.2907  146.3302  161.6258 O.2     1  UNL1       -0.2449
@<TRIPOS>BOND
     1    11    12    1
     2    12    13   ar
     3    13    14   ar
     4    14    18    1
     5    18    19   ar
     6    19    20   ar
     7    20    21   ar
     8    21    22   ar
     9    14    15   ar
    10    15    16   ar
    11    16    17   ar
    12    17     9    1
    13     9    10    1
    14     9     1    1
    15     1     2    2
    16     1     3   am
    17     3     4    1
    18     4     5    1
    19     5     6    1
    20     6    23    1
    21    23    24    1
    22    24    25    1
    23    25    26   ar
    24    26    27   ar
    25    27    28   ar
    26    28    29   ar
    27    29    30   ar
    28    30    31    1
    29    29    32    1
    30    32    33    1
    31    33    34    1
    32    34    35    2
    33     6     7    1
    34     7     8    1
    35    17    12   ar
    36     8     3    1
    37    22    18   ar
    38    30    25   ar
    39    34    28    1
@<TRIPOS>MOLECULE
*****
 35 39 0 0 0
SMALL
GASTEIGER

@<TRIPOS>ATOM
      1 C         143.0536  138.7954  163.7668 C.2     1  UNL1        0.2294
      2 O         144.4056  139.1234  164.3275 O.2     1  UNL1       -0.2745
      3 N         142.8185  138.8640  162.2870 N.am    1  UNL1       -0.2764
      4 C         143.9355  139.2605  161.3676 C.3     1  UNL1        0.1107
      5 C         143.7004  139.3291  159.8878 C.3     1  UNL1        0.0939
      6 N         142.3483  139.0011  159.3272 N.3     1  UNL1       -0.2695
      7 C         141.2312  138.6046  160.2464 C.3     1  UNL1        0.0939
      8 C         141.4664  138.5360  161.7264 C.3     1  UNL1        0.1107
      9 C         141.9365  138.3989  164.6861 C.3     1  UNL1        0.1000
     10 C         141.2328  137.0890  164.4895 C.3     1  UNL1        0.0144
     11 C         139.5790  140.2211  164.3377 C.3     1  UNL1        0.0518
     12 C         140.3446  140.2234  165.6277 C.ar    1  UNL1        0.0575
     13 N         139.9314  141.1368  166.7435 N.ar    1  UNL1       -0.2311
     14 C         140.6970  141.1391  168.0334 C.ar    1  UNL1        0.1668
     15 C         141.8757  140.2280  168.2075 C.ar    1  UNL1        0.0386
     16 C         142.2889  139.3146  167.0918 C.ar    1  UNL1        0.0005
     17 C         141.5233  139.3123  165.8019 C.ar    1  UNL1       -0.0001
     18 N         140.2838  142.0525  169.1492 N.ar    1  UNL1       -0.1708
     19 C         140.4659  143.5410  169.1833 C.ar    1  UNL1        0.2272
     20 N         139.9106  144.0462  170.4820 N.ar    1  UNL1       -0.1044
     21 N         139.3853  142.8701  171.2504 N.ar    1  UNL1       -0.0222
     22 N         139.6159  141.6378  170.4267 N.ar    1  UNL1       -0.0371
     23 C         142.1132  139.0697  157.8473 C.3     1  UNL1        0.0769
     24 C         141.2073  138.0744  157.1849 C.3     1  UNL1        0.0433
     25 C         141.7569  136.7642  156.7036 C.ar    1  UNL1       -0.0249
     26 C         142.9229  136.1360  157.4075 C.ar    1  UNL1       -0.0043
     27 C         143.4724  134.8259  156.9262 C.ar    1  UNL1        0.0059
     28 C         142.8558  134.1440  155.7409 C.ar    1  UNL1        0.0748
     29 C         141.6897  134.7722  155.0369 C.ar    1  UNL1        0.0233
     30 C         141.1402  136.0823  155.5182 C.ar    1  UNL1       -0.0260
     31 C         139.9741  136.7107  154.8143 C.3     1  UNL1        0.0305
     32 C         141.2925  133.8726  153.9043 C.3     1  UNL1        0.2352
     33 O         142.2131  132.6884  153.9083 O.3     1  UNL1       -0.4404
     34 C         143.1793  132.8561  155.0434 C.2     1  UNL1        0.3413
     35 O         144.2763  131.9032  155.4155 O.2     1  UNL1       -0.2449
@<TRIPOS>BOND
     1    11    12    1
     2    12    13   ar
     3    13    14   ar
     4    14    18    1
     5    18    19   ar
     6    19    20   ar
     7    20    21   ar
     8    21    22   ar
     9    14    15   ar
    10    15    16   ar
    11    16    17   ar
    12    17     9    1
    13     9    10    1
    14     9     1    1
    15     1     2    2
    16     1     3   am
    17     3     4    1
    18     4     5    1
    19     5     6    1
    20     6    23    1
    21    23    24    1
    22    24    25    1
    23    25    26   ar
    24    26    27   ar
    25    27    28   ar
    26    28    29   ar
    27    29    30   ar
    28    30    31    1
    29    29    32    1
    30    32    33    1
    31    33    34    1
    32    34    35    2
    33     6     7    1
    34     7     8    1
    35    17    12   ar
    36     8     3    1
    37    22    18   ar
    38    30    25   ar
    39    34    28    1
@<TRIPOS>MOLECULE
*****
 35 39 0 0 0
SMALL
GASTEIGER

@<TRIPOS>ATOM
      1 C         139.9742  139.0249  163.2785 C.2     1  UNL1        0.2294
      2 O         138.5430  138.7896  162.8959 O.2     1  UNL1       -0.2745
      3 N         140.8241  139.9565  162.4663 N.am    1  UNL1       -0.2764
      4 C         140.2430  140.6528  161.2715 C.3     1  UNL1        0.1107
      5 C         141.0930  141.5844  160.4594 C.3     1  UNL1        0.0939
      6 N         142.5242  141.8197  160.8420 N.3     1  UNL1       -0.2695
      7 C         143.1054  141.1235  162.0367 C.3     1  UNL1        0.0939
      8 C         142.2553  140.1919  162.8489 C.3     1  UNL1        0.1107
      9 C         140.5554  138.3287  164.4733 C.3     1  UNL1        0.1000
     10 C         141.0418  136.9148  164.3542 C.3     1  UNL1        0.0144
     11 C         138.0929  138.7473  166.1347 C.3     1  UNL1        0.0518
     12 C         139.4189  139.2557  166.6178 C.ar    1  UNL1        0.0575
     13 N         139.5137  139.9734  167.9315 N.ar    1  UNL1       -0.2311
     14 C         140.8397  140.4817  168.4145 C.ar    1  UNL1        0.1668
     15 C         142.0709  140.2723  167.5837 C.ar    1  UNL1        0.0386
     16 C         141.9762  139.5547  166.2700 C.ar    1  UNL1        0.0005
     17 C         140.6501  139.0463  165.7870 C.ar    1  UNL1       -0.0001
     18 N         140.9345  141.1994  169.7282 N.ar    1  UNL1       -0.1708
     19 C         142.1523  141.8858  170.2720 C.ar    1  UNL1        0.2272
     20 N         141.7985  142.4673  171.6088 N.ar    1  UNL1       -0.1044
     21 N         140.3622  142.1403  171.8911 N.ar    1  UNL1       -0.0222
     22 N         139.8281  141.3566  170.7289 N.ar    1  UNL1       -0.0371
     23 C         143.3741  142.7513  160.0298 C.3     1  UNL1        0.0769
     24 C         143.1936  142.8271  158.5426 C.3     1  UNL1        0.0433
     25 C         142.3226  143.8929  157.9462 C.ar    1  UNL1       -0.0249
     26 C         141.4160  144.7005  158.8269 C.ar    1  UNL1       -0.0043
     27 C         140.5451  145.7662  158.2305 C.ar    1  UNL1        0.0059
     28 C         140.5808  146.0243  156.7533 C.ar    1  UNL1        0.0748
     29 C         141.4874  145.2167  155.8725 C.ar    1  UNL1        0.0233
     30 C         142.3583  144.1510  156.4689 C.ar    1  UNL1       -0.0260
     31 C         143.2650  143.3433  155.5881 C.3     1  UNL1        0.0305
     32 C         141.3090  145.6940  154.4617 C.3     1  UNL1        0.2352
     33 O         140.2921  146.7966  154.4706 O.3     1  UNL1       -0.4404
     34 C         139.8420  147.0008  155.8869 C.2     1  UNL1        0.3413
     35 O         138.8307  148.0050  156.3546 O.2     1  UNL1       -0.2449
@<TRIPOS>BOND
     1    11    12    1
     2    12    13   ar
     3    13    14   ar
     4    14    18    1
     5    18    19   ar
     6    19    20   ar
     7    20    21   ar
     8    21    22   ar
     9    14    15   ar
    10    15    16   ar
    11    16    17   ar
    12    17     9    1
    13     9    10    1
    14     9     1    1
    15     1     2    2
    16     1     3   am
    17     3     4    1
    18     4     5    1
    19     5     6    1
    20     6    23    1
    21    23    24    1
    22    24    25    1
    23    25    26   ar
    24    26    27   ar
    25    27    28   ar
    26    28    29   ar
    27    29    30   ar
    28    30    31    1
    29    29    32    1
    30    32    33    1
    31    33    34    1
    32    34    35    2
    33     6     7    1
    34     7     8    1
    35    17    12   ar
    36     8     3    1
    37    22    18   ar
    38    30    25   ar
    39    34    28    1
