@<TRIPOS>MOLECULE
*****
 35 39 0 0 0
SMALL
GASTEIGER

@<TRIPOS>ATOM
      1 N         142.6394  143.7345  161.5658 N.3     1  UNL1       -0.2712
      2 C         143.9546  143.1408  161.1560 C.3     1  UNL1        0.0738
      3 C         144.4703  142.3215  162.3018 C.3     1  UNL1        0.0372
      4 C         145.6019  141.4482  162.7566 C.3     1  UNL1        0.0245
      5 C         145.3049  140.9958  164.1557 C.3     1  UNL1        0.0909
      6 N         143.9897  141.5896  164.5654 N.pl3   1  UNL1       -0.3077
      7 C         143.4740  142.4089  163.4197 C.3     1  UNL1        0.0901
      8 C         142.3424  143.2822  162.9648 C.3     1  UNL1        0.0921
      9 C         143.3098  141.3978  165.8886 C.ar    1  UNL1        0.0480
     10 C         142.6613  140.0853  166.2153 C.ar    1  UNL1        0.0176
     11 C         141.9813  139.8934  167.5385 C.ar    1  UNL1        0.0385
     12 C         141.9499  141.0141  168.5350 C.ar    1  UNL1        0.1469
     13 C         142.5984  142.3267  168.2084 C.ar    1  UNL1        0.0385
     14 C         143.2784  142.5185  166.8852 C.ar    1  UNL1        0.0176
     15 O         141.2699  140.8222  169.8582 O.3     1  UNL1       -0.4045
     16 C         139.7926  140.5683  169.9125 C.3     1  UNL1        0.5753
     17 F         138.3152  140.3145  169.9667 F       1  UNL1       -0.1328
     18 F         140.0234  139.4275  170.8585 F       1  UNL1       -0.1328
     19 F         139.5618  141.7093  168.9664 F       1  UNL1       -0.1328
     20 C         141.7734  144.6244  160.7243 C.3     1  UNL1        0.0731
     21 C         140.3152  144.7714  161.0437 C.3     1  UNL1        0.0294
     22 C         139.8824  145.6289  162.1959 C.3     1  UNL1        0.0666
     23 S         138.8980  145.0997  163.1964 S.3     1  UNL1       -0.0756
     24 C         139.7362  142.7485  165.2984 C.3     1  UNL1        0.1340
     25 N         138.8484  142.5847  164.1005 N.ar    1  UNL1       -0.2872
     26 C         138.4632  143.6655  163.1343 C.ar    1  UNL1        0.1933
     27 N         137.5667  143.0602  162.0950 N.ar    1  UNL1       -0.1221
     28 N         137.3979  141.6054  162.4190 N.ar    1  UNL1       -0.1266
     29 C         138.1900  141.3114  163.6584 C.ar    1  UNL1        0.1862
     30 C         138.3038  139.9784  164.3366 C.ar    1  UNL1        0.1362
     31 C         138.7647  138.7795  163.5618 C.ar    1  UNL1        0.1211
     32 N         138.8785  137.4465  164.2400 N.ar    1  UNL1       -0.2390
     33 C         138.5314  137.3123  165.6932 C.ar    1  UNL1        0.1195
     34 C         138.0705  138.5111  166.4680 C.ar    1  UNL1        0.1196
     35 N         137.9567  139.8442  165.7897 N.ar    1  UNL1       -0.2375
@<TRIPOS>BOND
     1    24    25    1
     2    25    26   ar
     3    26    23    1
     4    23    22    1
     5    22    21    1
     6    21    20    1
     7    20     1    1
     8     1     2    1
     9     2     3    1
    10     3     4    1
    11     4     5    1
    12     5     6    1
    13     6     9    1
    14     9    10   ar
    15    10    11   ar
    16    11    12   ar
    17    12    15    1
    18    15    16    1
    19    16    17    1
    20    16    18    1
    21    16    19    1
    22    12    13   ar
    23    13    14   ar
    24     6     7    1
    25     7     8    1
    26    26    27   ar
    27    27    28   ar
    28    28    29   ar
    29    29    30    1
    30    30    31   ar
    31    31    32   ar
    32    32    33   ar
    33    33    34   ar
    34    34    35   ar
    35    29    25   ar
    36    35    30   ar
    37     8     1    1
    38     7     3    1
    39    14     9   ar
@<TRIPOS>MOLECULE
*****
 35 39 0 0 0
SMALL
GASTEIGER

@<TRIPOS>ATOM
      1 N         138.4609  141.4132  161.2942 N.3     1  UNL1       -0.2712
      2 C         138.2766  139.9519  161.0105 C.3     1  UNL1        0.0738
      3 C         138.5492  139.1959  162.2771 C.3     1  UNL1        0.0372
      4 C         138.6038  137.8255  162.8846 C.3     1  UNL1        0.0245
      5 C         138.9904  137.9726  164.3264 C.3     1  UNL1        0.0909
      6 N         139.1747  139.4340  164.6101 N.pl3   1  UNL1       -0.3077
      7 C         138.9020  140.1900  163.3435 C.3     1  UNL1        0.0901
      8 C         138.8474  141.5604  162.7361 C.3     1  UNL1        0.0921
      9 C         139.5634  140.0341  165.9287 C.ar    1  UNL1        0.0480
     10 C         139.0180  139.4613  167.2033 C.ar    1  UNL1        0.0176
     11 C         139.4067  140.0613  168.5219 C.ar    1  UNL1        0.0385
     12 C         140.3408  141.2341  168.5661 C.ar    1  UNL1        0.1469
     13 C         140.8863  141.8069  167.2915 C.ar    1  UNL1        0.0385
     14 C         140.4976  141.2069  165.9729 C.ar    1  UNL1        0.0176
     15 O         140.7296  141.8341  169.8847 O.3     1  UNL1       -0.4045
     16 C         140.5504  143.3044  170.1217 C.3     1  UNL1        0.5753
     17 F         140.3713  144.7747  170.3587 F       1  UNL1       -0.1328
     18 F         141.9516  143.5516  169.6468 F       1  UNL1       -0.1328
     19 F         139.1492  143.0571  170.5966 F       1  UNL1       -0.1328
     20 C         138.2888  142.5311  160.3090 C.3     1  UNL1        0.0731
     21 C         138.6046  142.3087  158.8596 C.3     1  UNL1        0.0294
     22 C         139.2430  143.4017  158.0547 C.3     1  UNL1        0.0666
     23 S         140.7376  143.4969  157.9717 S.3     1  UNL1       -0.0756
     24 C         142.0527  140.9512  159.5336 C.3     1  UNL1        0.1340
     25 N         142.1604  142.3896  159.9452 N.ar    1  UNL1       -0.2872
     26 C         141.5559  143.5597  159.2272 C.ar    1  UNL1        0.1933
     27 N         141.9134  144.8038  159.9853 N.ar    1  UNL1       -0.1221
     28 N         142.7388  144.4025  161.1717 N.ar    1  UNL1       -0.1266
     29 C         142.8915  142.9105  161.1470 C.ar    1  UNL1        0.1862
     30 C         143.6433  142.0844  162.1482 C.ar    1  UNL1        0.1362
     31 C         145.1296  142.2364  162.2813 C.ar    1  UNL1        0.1211
     32 N         145.8814  141.4103  163.2825 N.ar    1  UNL1       -0.2390
     33 C         145.1467  140.4322  164.1506 C.ar    1  UNL1        0.1195
     34 C         143.6604  140.2802  164.0176 C.ar    1  UNL1        0.1196
     35 N         142.9087  141.1063  163.0163 N.ar    1  UNL1       -0.2375
@<TRIPOS>BOND
     1    24    25    1
     2    25    26   ar
     3    26    23    1
     4    23    22    1
     5    22    21    1
     6    21    20    1
     7    20     1    1
     8     1     2    1
     9     2     3    1
    10     3     4    1
    11     4     5    1
    12     5     6    1
    13     6     9    1
    14     9    10   ar
    15    10    11   ar
    16    11    12   ar
    17    12    15    1
    18    15    16    1
    19    16    17    1
    20    16    18    1
    21    16    19    1
    22    12    13   ar
    23    13    14   ar
    24     6     7    1
    25     7     8    1
    26    26    27   ar
    27    27    28   ar
    28    28    29   ar
    29    29    30    1
    30    30    31   ar
    31    31    32   ar
    32    32    33   ar
    33    33    34   ar
    34    34    35   ar
    35    29    25   ar
    36    35    30   ar
    37     8     1    1
    38     7     3    1
    39    14     9   ar
@<TRIPOS>MOLECULE
*****
 35 39 0 0 0
SMALL
GASTEIGER

@<TRIPOS>ATOM
      1 N         141.9906  138.8709  161.1925 N.3     1  UNL1       -0.2712
      2 C         140.7151  138.1080  160.9900 C.3     1  UNL1        0.0738
      3 C         139.9967  138.0486  162.3054 C.3     1  UNL1        0.0372
      4 C         138.7644  137.5404  162.9932 C.3     1  UNL1        0.0245
      5 C         138.8343  137.9524  164.4339 C.3     1  UNL1        0.0909
      6 N         140.1099  138.7153  164.6364 N.pl3   1  UNL1       -0.3077
      7 C         140.8283  138.7748  163.3209 C.3     1  UNL1        0.0901
      8 C         142.0606  139.2830  162.6331 C.3     1  UNL1        0.0921
      9 C         140.5838  139.3137  165.9276 C.ar    1  UNL1        0.0480
     10 C         142.0349  139.2403  166.3003 C.ar    1  UNL1        0.0176
     11 C         142.5088  139.8387  167.5916 C.ar    1  UNL1        0.0385
     12 C         141.5317  140.5105  168.5101 C.ar    1  UNL1        0.1469
     13 C         140.0805  140.5839  168.1375 C.ar    1  UNL1        0.0385
     14 C         139.6066  139.9855  166.8462 C.ar    1  UNL1        0.0176
     15 O         142.0056  141.1088  169.8014 O.3     1  UNL1       -0.4045
     16 C         143.3390  141.7928  169.8663 C.3     1  UNL1        0.5753
     17 F         144.6724  142.4769  169.9311 F       1  UNL1       -0.1328
     18 F         143.9101  140.6106  170.5916 F       1  UNL1       -0.1328
     19 F         142.7678  142.9751  169.1409 F       1  UNL1       -0.1328
     20 C         143.0162  139.1694  160.1394 C.3     1  UNL1        0.0731
     21 C         142.6725  139.0017  158.6889 C.3     1  UNL1        0.0294
     22 C         142.2019  140.1798  157.8885 C.3     1  UNL1        0.0666
     23 S         140.7489  140.3198  157.5434 S.3     1  UNL1       -0.0756
     24 C         140.9784  142.3957  160.0509 C.3     1  UNL1        0.1340
     25 N         139.8392  141.4568  159.7850 N.ar    1  UNL1       -0.2872
     26 C         139.7337  140.5026  158.6325 C.ar    1  UNL1        0.1933
     27 N         138.4349  139.7633  158.7601 N.ar    1  UNL1       -0.1221
     28 N         137.7376  140.2605  159.9916 N.ar    1  UNL1       -0.1266
     29 C         138.6055  141.3072  160.6251 C.ar    1  UNL1        0.1862
     30 C         138.2943  142.0703  161.8785 C.ar    1  UNL1        0.1362
     31 C         138.2197  141.3534  163.1940 C.ar    1  UNL1        0.1211
     32 N         137.9085  142.1165  164.4473 N.ar    1  UNL1       -0.2390
     33 C         137.6720  143.5965  164.3851 C.ar    1  UNL1        0.1195
     34 C         137.7467  144.3133  163.0696 C.ar    1  UNL1        0.1196
     35 N         138.0579  143.5502  161.8163 N.ar    1  UNL1       -0.2375
@<TRIPOS>BOND
     1    24    25    1
     2    25    26   ar
     3    26    23    1
     4    23    22    1
     5    22    21    1
     6    21    20    1
     7    20     1    1
     8     1     2    1
     9     2     3    1
    10     3     4    1
    11     4     5    1
    12     5     6    1
    13     6     9    1
    14     9    10   ar
    15    10    11   ar
    16    11    12   ar
    17    12    15    1
    18    15    16    1
    19    16    17    1
    20    16    18    1
    21    16    19    1
    22    12    13   ar
    23    13    14   ar
    24     6     7    1
    25     7     8    1
    26    26    27   ar
    27    27    28   ar
    28    28    29   ar
    29    29    30    1
    30    30    31   ar
    31    31    32   ar
    32    32    33   ar
    33    33    34   ar
    34    34    35   ar
    35    29    25   ar
    36    35    30   ar
    37     8     1    1
    38     7     3    1
    39    14     9   ar
@<TRIPOS>MOLECULE
*****
 35 39 0 0 0
SMALL
GASTEIGER

@<TRIPOS>ATOM
      1 N         143.6843  141.4650  160.8492 N.3     1  UNL1       -0.2712
      2 C         144.1803  142.8796  160.9022 C.3     1  UNL1        0.0738
      3 C         143.9385  143.4040  162.2866 C.3     1  UNL1        0.0372
      4 C         144.0955  144.6023  163.1750 C.3     1  UNL1        0.0245
      5 C         143.5471  144.2525  164.5267 C.3     1  UNL1        0.0909
      6 N         143.0511  142.8378  164.4736 N.pl3   1  UNL1       -0.3077
      7 C         143.2929  142.3134  163.0892 C.3     1  UNL1        0.0901
      8 C         143.1359  141.1151  162.2008 C.3     1  UNL1        0.0921
      9 C         142.4234  142.0805  165.6061 C.ar    1  UNL1        0.0480
     10 C         142.9761  140.7472  166.0143 C.ar    1  UNL1        0.0176
     11 C         142.3485  139.9899  167.1468 C.ar    1  UNL1        0.0385
     12 C         141.1680  140.5660  167.8711 C.ar    1  UNL1        0.1469
     13 C         140.6152  141.8994  167.4629 C.ar    1  UNL1        0.0385
     14 C         141.2429  142.6566  166.3304 C.ar    1  UNL1        0.0176
     15 O         140.5403  139.8087  169.0036 O.3     1  UNL1       -0.4045
     16 C         139.3007  140.3365  169.6628 C.3     1  UNL1        0.5753
     17 F         138.0610  140.8644  170.3221 F       1  UNL1       -0.1328
     18 F         140.1429  141.0212  170.6981 F       1  UNL1       -0.1328
     19 F         138.4585  139.6518  168.6275 F       1  UNL1       -0.1328
     20 C         143.7289  140.5593  159.6544 C.3     1  UNL1        0.0731
     21 C         143.9467  141.1333  158.2858 C.3     1  UNL1        0.0294
     22 C         142.8022  141.2269  157.3207 C.3     1  UNL1        0.0666
     23 S         142.1205  142.5431  157.0911 S.3     1  UNL1       -0.0756
     24 C         140.0987  141.7068  159.5123 C.3     1  UNL1        0.1340
     25 N         140.8103  143.0197  159.3717 N.ar    1  UNL1       -0.2872
     26 C         141.7396  143.4042  158.2588 C.ar    1  UNL1        0.1933
     27 N         142.2212  144.8008  158.5185 N.ar    1  UNL1       -0.1221
     28 N         141.5895  145.2796  159.7920 N.ar    1  UNL1       -0.1266
     29 C         140.7175  144.1789  160.3193 C.ar    1  UNL1        0.1862
     30 C         139.8968  144.2285  161.5739 C.ar    1  UNL1        0.1362
     31 C         140.4470  144.8864  162.8045 C.ar    1  UNL1        0.1211
     32 N         139.6263  144.9361  164.0591 N.ar    1  UNL1       -0.2390
     33 C         138.2554  144.3277  164.0830 C.ar    1  UNL1        0.1195
     34 C         137.7052  143.6698  162.8525 C.ar    1  UNL1        0.1196
     35 N         138.5259  143.6202  161.5979 N.ar    1  UNL1       -0.2375
@<TRIPOS>BOND
     1    24    25    1
     2    25    26   ar
     3    26    23    1
     4    23    22    1
     5    22    21    1
     6    21    20    1
     7    20     1    1
     8     1     2    1
     9     2     3    1
    10     3     4    1
    11     4     5    1
    12     5     6    1
    13     6     9    1
    14     9    10   ar
    15    10    11   ar
    16    11    12   ar
    17    12    15    1
    18    15    16    1
    19    16    17    1
    20    16    18    1
    21    16    19    1
    22    12    13   ar
    23    13    14   ar
    24     6     7    1
    25     7     8    1
    26    26    27   ar
    27    27    28   ar
    28    28    29   ar
    29    29    30    1
    30    30    31   ar
    31    31    32   ar
    32    32    33   ar
    33    33    34   ar
    34    34    35   ar
    35    29    25   ar
    36    35    30   ar
    37     8     1    1
    38     7     3    1
    39    14     9   ar
@<TRIPOS>MOLECULE
*****
 35 39 0 0 0
SMALL
GASTEIGER

@<TRIPOS>ATOM
      1 N         141.4250  139.2701  160.4600 N.3     1  UNL1       -0.2712
      2 C         140.1042  138.5633  160.3835 C.3     1  UNL1        0.0738
      3 C         139.6302  138.3138  161.7845 C.3     1  UNL1        0.0372
      4 C         138.5210  137.7227  162.6032 C.3     1  UNL1        0.0245
      5 C         138.8633  137.9099  164.0516 C.3     1  UNL1        0.0909
      6 N         140.1842  138.6167  164.1281 N.pl3   1  UNL1       -0.3077
      7 C         140.6581  138.8663  162.7270 C.3     1  UNL1        0.0901
      8 C         141.7674  139.4574  161.9083 C.3     1  UNL1        0.0921
      9 C         140.9045  139.0057  165.3850 C.ar    1  UNL1        0.0480
     10 C         140.1854  139.7725  166.4549 C.ar    1  UNL1        0.0176
     11 C         140.9058  140.1614  167.7118 C.ar    1  UNL1        0.0385
     12 C         142.3453  139.7835  167.8988 C.ar    1  UNL1        0.1469
     13 C         143.0645  139.0167  166.8288 C.ar    1  UNL1        0.0385
     14 C         142.3441  138.6278  165.5719 C.ar    1  UNL1        0.0176
     15 O         143.0656  140.1724  169.1557 O.3     1  UNL1       -0.4045
     16 C         143.0282  141.5942  169.6323 C.3     1  UNL1        0.5753
     17 F         142.9908  143.0160  170.1088 F       1  UNL1       -0.1328
     18 F         142.5171  141.1339  170.9652 F       1  UNL1       -0.1328
     19 F         143.5393  142.0544  168.2992 F       1  UNL1       -0.1328
     20 C         142.2574  139.7121  159.2930 C.3     1  UNL1        0.0731
     21 C         143.6738  140.1568  159.5077 C.3     1  UNL1        0.0294
     22 C         144.0981  141.5350  159.0947 C.3     1  UNL1        0.0666
     23 S         144.4369  142.5592  160.1369 S.3     1  UNL1       -0.0756
     24 C         141.3095  143.4483  160.4167 C.3     1  UNL1        0.1340
     25 N         142.2111  143.0300  161.5401 N.ar    1  UNL1       -0.2872
     26 C         143.6486  142.6213  161.4115 C.ar    1  UNL1        0.1933
     27 N         144.1595  142.2857  162.7813 N.ar    1  UNL1       -0.1221
     28 N         143.0377  142.4869  163.7566 N.ar    1  UNL1       -0.1266
     29 C         141.8335  142.9469  162.9895 C.ar    1  UNL1        0.1862
     30 C         140.4880  143.2676  163.5698 C.ar    1  UNL1        0.1362
     31 C         140.2719  144.5652  164.2906 C.ar    1  UNL1        0.1211
     32 N         138.9264  144.8858  164.8710 N.ar    1  UNL1       -0.2390
     33 C         137.7969  143.9087  164.7305 C.ar    1  UNL1        0.1195
     34 C         138.0130  142.6111  164.0097 C.ar    1  UNL1        0.1196
     35 N         139.3585  142.2906  163.4294 N.ar    1  UNL1       -0.2375
@<TRIPOS>BOND
     1    24    25    1
     2    25    26   ar
     3    26    23    1
     4    23    22    1
     5    22    21    1
     6    21    20    1
     7    20     1    1
     8     1     2    1
     9     2     3    1
    10     3     4    1
    11     4     5    1
    12     5     6    1
    13     6     9    1
    14     9    10   ar
    15    10    11   ar
    16    11    12   ar
    17    12    15    1
    18    15    16    1
    19    16    17    1
    20    16    18    1
    21    16    19    1
    22    12    13   ar
    23    13    14   ar
    24     6     7    1
    25     7     8    1
    26    26    27   ar
    27    27    28   ar
    28    28    29   ar
    29    29    30    1
    30    30    31   ar
    31    31    32   ar
    32    32    33   ar
    33    33    34   ar
    34    34    35   ar
    35    29    25   ar
    36    35    30   ar
    37     8     1    1
    38     7     3    1
    39    14     9   ar
@<TRIPOS>MOLECULE
*****
 35 39 0 0 0
SMALL
GASTEIGER

@<TRIPOS>ATOM
      1 N         142.1110  144.1153  162.0371 N.3     1  UNL1       -0.2712
      2 C         143.3718  143.6474  161.3729 C.3     1  UNL1        0.0738
      3 C         144.0359  142.6578  162.2838 C.3     1  UNL1        0.0372
      4 C         145.2255  141.7570  162.4363 C.3     1  UNL1        0.0245
      5 C         145.1103  141.0566  163.7578 C.3     1  UNL1        0.0909
      6 N         143.8494  141.5245  164.4220 N.pl3   1  UNL1       -0.3077
      7 C         143.1854  142.5141  163.5110 C.3     1  UNL1        0.0901
      8 C         141.9957  143.4149  163.3586 C.3     1  UNL1        0.0921
      9 C         143.3416  141.0808  165.7619 C.ar    1  UNL1        0.0480
     10 C         143.0421  142.0963  166.8243 C.ar    1  UNL1        0.0176
     11 C         142.5344  141.6526  168.1642 C.ar    1  UNL1        0.0385
     12 C         142.3262  140.1933  168.4416 C.ar    1  UNL1        0.1469
     13 C         142.6257  139.1776  167.3791 C.ar    1  UNL1        0.0385
     14 C         143.1334  139.6214  166.0393 C.ar    1  UNL1        0.0176
     15 O         141.8184  139.7495  169.7815 O.3     1  UNL1       -0.4045
     16 C         141.1551  140.7358  170.6965 C.3     1  UNL1        0.5753
     17 F         140.4918  141.7222  171.6115 F       1  UNL1       -0.1328
     18 F         139.8873  140.6189  169.9034 F       1  UNL1       -0.1328
     19 F         142.4230  140.8527  171.4895 F       1  UNL1       -0.1328
     20 C         141.1364  145.1091  161.4781 C.3     1  UNL1        0.0731
     21 C         140.0059  144.6436  160.6090 C.3     1  UNL1        0.0294
     22 C         140.2849  143.7835  159.4121 C.3     1  UNL1        0.0666
     23 S         139.8794  142.3394  159.4155 S.3     1  UNL1       -0.0756
     24 C         138.0569  142.0179  162.1033 C.3     1  UNL1        0.1340
     25 N         139.3602  141.3260  161.8338 N.ar    1  UNL1       -0.2872
     26 C         140.1979  141.4737  160.5984 C.ar    1  UNL1        0.1933
     27 N         141.4101  140.6039  160.7534 N.ar    1  UNL1       -0.1221
     28 N         141.3215  139.9185  162.0848 N.ar    1  UNL1       -0.1266
     29 C         140.0546  140.3648  162.7526 C.ar    1  UNL1        0.1862
     30 C         139.5677  139.9268  164.1020 C.ar    1  UNL1        0.1362
     31 C         138.9142  138.5865  164.2649 C.ar    1  UNL1        0.1211
     32 N         138.4273  138.1484  165.6143 N.ar    1  UNL1       -0.2390
     33 C         138.5938  139.0509  166.8009 C.ar    1  UNL1        0.1195
     34 C         139.2473  140.3912  166.6381 C.ar    1  UNL1        0.1196
     35 N         139.7342  140.8291  165.2886 N.ar    1  UNL1       -0.2375
@<TRIPOS>BOND
     1    24    25    1
     2    25    26   ar
     3    26    23    1
     4    23    22    1
     5    22    21    1
     6    21    20    1
     7    20     1    1
     8     1     2    1
     9     2     3    1
    10     3     4    1
    11     4     5    1
    12     5     6    1
    13     6     9    1
    14     9    10   ar
    15    10    11   ar
    16    11    12   ar
    17    12    15    1
    18    15    16    1
    19    16    17    1
    20    16    18    1
    21    16    19    1
    22    12    13   ar
    23    13    14   ar
    24     6     7    1
    25     7     8    1
    26    26    27   ar
    27    27    28   ar
    28    28    29   ar
    29    29    30    1
    30    30    31   ar
    31    31    32   ar
    32    32    33   ar
    33    33    34   ar
    34    34    35   ar
    35    29    25   ar
    36    35    30   ar
    37     8     1    1
    38     7     3    1
    39    14     9   ar
@<TRIPOS>MOLECULE
*****
 35 39 0 0 0
SMALL
GASTEIGER

@<TRIPOS>ATOM
      1 N         143.0553  138.9639  161.4811 N.3     1  UNL1       -0.2712
      2 C         144.2010  139.8738  161.1503 C.3     1  UNL1        0.0738
      3 C         144.5259  140.6745  162.3763 C.3     1  UNL1        0.0372
      4 C         145.4348  141.7318  162.9296 C.3     1  UNL1        0.0245
      5 C         145.0516  141.9703  164.3601 C.3     1  UNL1        0.0909
      6 N         143.9058  141.0603  164.6909 N.pl3   1  UNL1       -0.3077
      7 C         143.5810  140.2596  163.4649 C.3     1  UNL1        0.0901
      8 C         142.6721  139.2023  162.9116 C.3     1  UNL1        0.0921
      9 C         143.2076  140.9676  166.0153 C.ar    1  UNL1        0.0480
     10 C         142.7663  142.2162  166.7196 C.ar    1  UNL1        0.0176
     11 C         142.0681  142.1234  168.0439 C.ar    1  UNL1        0.0385
     12 C         141.8111  140.7820  168.6639 C.ar    1  UNL1        0.1469
     13 C         142.2525  139.5332  167.9596 C.ar    1  UNL1        0.0385
     14 C         142.9507  139.6260  166.6353 C.ar    1  UNL1        0.0176
     15 O         141.1129  140.6892  169.9883 O.3     1  UNL1       -0.4045
     16 C         140.2541  141.8230  170.4644 C.3     1  UNL1        0.5753
     17 F         139.3953  142.9570  170.9406 F       1  UNL1       -0.1328
     18 F         141.3816  142.3170  171.3216 F       1  UNL1       -0.1328
     19 F         139.1266  141.3290  169.6072 F       1  UNL1       -0.1328
     20 C         142.4066  137.9871  160.5457 C.3     1  UNL1        0.0731
     21 C         142.6064  138.1205  159.0651 C.3     1  UNL1        0.0294
     22 C         141.4230  138.3052  158.1620 C.3     1  UNL1        0.0666
     23 S         140.7663  139.6492  158.0517 S.3     1  UNL1       -0.0756
     24 C         141.1164  141.8384  160.4464 C.3     1  UNL1        0.1340
     25 N         139.8725  141.0581  160.1400 N.ar    1  UNL1       -0.2872
     26 C         139.7115  140.0519  159.0393 C.ar    1  UNL1        0.1933
     27 N         138.3107  139.5190  159.0996 N.ar    1  UNL1       -0.1221
     28 N         137.6058  140.1959  160.2376 N.ar    1  UNL1       -0.1266
     29 C         138.5710  141.1471  160.8807 C.ar    1  UNL1        0.1862
     30 C         138.2850  142.0320  162.0576 C.ar    1  UNL1        0.1362
     31 C         138.1449  141.4364  163.4272 C.ar    1  UNL1        0.1211
     32 N         137.8589  142.3213  164.6041 N.ar    1  UNL1       -0.2390
     33 C         137.7131  143.8017  164.4115 C.ar    1  UNL1        0.1195
     34 C         137.8533  144.3973  163.0419 C.ar    1  UNL1        0.1196
     35 N         138.1393  143.5124  161.8650 N.ar    1  UNL1       -0.2375
@<TRIPOS>BOND
     1    24    25    1
     2    25    26   ar
     3    26    23    1
     4    23    22    1
     5    22    21    1
     6    21    20    1
     7    20     1    1
     8     1     2    1
     9     2     3    1
    10     3     4    1
    11     4     5    1
    12     5     6    1
    13     6     9    1
    14     9    10   ar
    15    10    11   ar
    16    11    12   ar
    17    12    15    1
    18    15    16    1
    19    16    17    1
    20    16    18    1
    21    16    19    1
    22    12    13   ar
    23    13    14   ar
    24     6     7    1
    25     7     8    1
    26    26    27   ar
    27    27    28   ar
    28    28    29   ar
    29    29    30    1
    30    30    31   ar
    31    31    32   ar
    32    32    33   ar
    33    33    34   ar
    34    34    35   ar
    35    29    25   ar
    36    35    30   ar
    37     8     1    1
    38     7     3    1
    39    14     9   ar
@<TRIPOS>MOLECULE
*****
 35 39 0 0 0
SMALL
GASTEIGER

@<TRIPOS>ATOM
      1 N         139.6885  140.5923  160.4265 N.3     1  UNL1       -0.2712
      2 C         139.0740  139.2264  160.5086 C.3     1  UNL1        0.0738
      3 C         139.0566  138.8120  161.9501 C.3     1  UNL1        0.0372
      4 C         138.6660  137.7117  162.8918 C.3     1  UNL1        0.0245
      5 C         139.0283  138.1414  164.2826 C.3     1  UNL1        0.0909
      6 N         139.6429  139.5073  164.2004 N.pl3   1  UNL1       -0.3077
      7 C         139.6603  139.9217  162.7589 C.3     1  UNL1        0.0901
      8 C         140.0508  141.0220  161.8171 C.3     1  UNL1        0.0921
      9 C         140.1507  140.3167  165.3566 C.ar    1  UNL1        0.0480
     10 C         140.9393  139.6540  166.4470 C.ar    1  UNL1        0.0176
     11 C         141.4472  140.4634  167.6033 C.ar    1  UNL1        0.0385
     12 C         141.1665  141.9354  167.6692 C.ar    1  UNL1        0.1469
     13 C         140.3779  142.5981  166.5788 C.ar    1  UNL1        0.0385
     14 C         139.8700  141.7888  165.4225 C.ar    1  UNL1        0.0176
     15 O         141.6743  142.7447  168.8255 O.3     1  UNL1       -0.4045
     16 C         143.0135  142.4359  169.4264 C.3     1  UNL1        0.5753
     17 F         144.3528  142.1271  170.0274 F       1  UNL1       -0.1328
     18 F         143.6664  142.6838  168.0989 F       1  UNL1       -0.1328
     19 F         142.3607  142.1880  170.7540 F       1  UNL1       -0.1328
     20 C         139.9030  141.3887  159.1735 C.3     1  UNL1        0.0731
     21 C         139.0605  142.5994  158.9009 C.3     1  UNL1        0.0294
     22 C         139.5573  143.6646  157.9689 C.3     1  UNL1        0.0666
     23 S         140.2296  144.8878  158.5182 S.3     1  UNL1       -0.0756
     24 C         142.7235  143.4145  160.0213 C.3     1  UNL1        0.1340
     25 N         141.6988  144.2961  160.6714 N.ar    1  UNL1       -0.2872
     26 C         140.5524  144.9733  159.9805 C.ar    1  UNL1        0.1933
     27 N         139.7856  145.7510  161.0087 N.ar    1  UNL1       -0.1221
     28 N         140.4580  145.5544  162.3351 N.ar    1  UNL1       -0.1266
     29 C         141.6404  144.6553  162.1267 C.ar    1  UNL1        0.1862
     30 C         142.5966  144.1959  163.1872 C.ar    1  UNL1        0.1362
     31 C         143.4373  145.1965  163.9234 C.ar    1  UNL1        0.1211
     32 N         144.3935  144.7372  164.9840 N.ar    1  UNL1       -0.2390
     33 C         144.5088  143.2772  165.3083 C.ar    1  UNL1        0.1195
     34 C         143.6681  142.2766  164.5722 C.ar    1  UNL1        0.1196
     35 N         142.7119  142.7360  163.5116 N.ar    1  UNL1       -0.2375
@<TRIPOS>BOND
     1    24    25    1
     2    25    26   ar
     3    26    23    1
     4    23    22    1
     5    22    21    1
     6    21    20    1
     7    20     1    1
     8     1     2    1
     9     2     3    1
    10     3     4    1
    11     4     5    1
    12     5     6    1
    13     6     9    1
    14     9    10   ar
    15    10    11   ar
    16    11    12   ar
    17    12    15    1
    18    15    16    1
    19    16    17    1
    20    16    18    1
    21    16    19    1
    22    12    13   ar
    23    13    14   ar
    24     6     7    1
    25     7     8    1
    26    26    27   ar
    27    27    28   ar
    28    28    29   ar
    29    29    30    1
    30    30    31   ar
    31    31    32   ar
    32    32    33   ar
    33    33    34   ar
    34    34    35   ar
    35    29    25   ar
    36    35    30   ar
    37     8     1    1
    38     7     3    1
    39    14     9   ar
@<TRIPOS>MOLECULE
*****
 35 39 0 0 0
SMALL
GASTEIGER

@<TRIPOS>ATOM
      1 N         142.4383  139.2947  160.0752 N.3     1  UNL1       -0.2712
      2 C         141.0838  138.7053  159.8143 C.3     1  UNL1        0.0738
      3 C         140.4276  138.4478  161.1384 C.3     1  UNL1        0.0372
      4 C         139.1850  137.9244  161.7955 C.3     1  UNL1        0.0245
      5 C         139.3658  138.0310  163.2808 C.3     1  UNL1        0.0909
      6 N         140.7203  138.6204  163.5416 N.pl3   1  UNL1       -0.3077
      7 C         141.3765  138.8780  162.2175 C.3     1  UNL1        0.0901
      8 C         142.6192  139.4014  161.5604 C.3     1  UNL1        0.0921
      9 C         141.3143  138.9027  164.8897 C.ar    1  UNL1        0.0480
     10 C         140.5530  139.7239  165.8877 C.ar    1  UNL1        0.0176
     11 C         141.1470  140.0062  167.2358 C.ar    1  UNL1        0.0385
     12 C         142.5023  139.4673  167.5860 C.ar    1  UNL1        0.1469
     13 C         143.2637  138.6460  166.5880 C.ar    1  UNL1        0.0385
     14 C         142.6697  138.3637  165.2399 C.ar    1  UNL1        0.0176
     15 O         143.0963  139.7495  168.9342 O.3     1  UNL1       -0.4045
     16 C         142.2076  140.1348  170.0795 C.3     1  UNL1        0.5753
     17 F         141.3189  140.5201  171.2249 F       1  UNL1       -0.1328
     18 F         141.8223  138.6970  170.2641 F       1  UNL1       -0.1328
     19 F         142.5930  141.5727  169.8948 F       1  UNL1       -0.1328
     20 C         143.4366  139.7052  159.0337 C.3     1  UNL1        0.0731
     21 C         143.3186  141.0444  158.3683 C.3     1  UNL1        0.0294
     22 C         142.2870  141.2637  157.3017 C.3     1  UNL1        0.0666
     23 S         141.5146  142.5488  157.2582 S.3     1  UNL1       -0.0756
     24 C         139.5437  141.9326  159.7851 C.3     1  UNL1        0.1340
     25 N         140.4744  143.1020  159.6575 N.ar    1  UNL1       -0.2872
     26 C         141.3803  143.3853  158.4960 C.ar    1  UNL1        0.1933
     27 N         142.1284  144.6518  158.7897 N.ar    1  UNL1       -0.1221
     28 N         141.6847  145.1514  160.1327 N.ar    1  UNL1       -0.1266
     29 C         140.6625  144.1936  160.6691 C.ar    1  UNL1        0.1862
     30 C         139.9530  144.3073  161.9858 C.ar    1  UNL1        0.1362
     31 C         140.7427  144.4321  163.2550 C.ar    1  UNL1        0.1211
     32 N         140.0333  144.5459  164.5717 N.ar    1  UNL1       -0.2390
     33 C         138.5340  144.5349  164.6191 C.ar    1  UNL1        0.1195
     34 C         137.7443  144.4101  163.3499 C.ar    1  UNL1        0.1196
     35 N         138.4539  144.2963  162.0332 N.ar    1  UNL1       -0.2375
@<TRIPOS>BOND
     1    24    25    1
     2    25    26   ar
     3    26    23    1
     4    23    22    1
     5    22    21    1
     6    21    20    1
     7    20     1    1
     8     1     2    1
     9     2     3    1
    10     3     4    1
    11     4     5    1
    12     5     6    1
    13     6     9    1
    14     9    10   ar
    15    10    11   ar
    16    11    12   ar
    17    12    15    1
    18    15    16    1
    19    16    17    1
    20    16    18    1
    21    16    19    1
    22    12    13   ar
    23    13    14   ar
    24     6     7    1
    25     7     8    1
    26    26    27   ar
    27    27    28   ar
    28    28    29   ar
    29    29    30    1
    30    30    31   ar
    31    31    32   ar
    32    32    33   ar
    33    33    34   ar
    34    34    35   ar
    35    29    25   ar
    36    35    30   ar
    37     8     1    1
    38     7     3    1
    39    14     9   ar
