@<TRIPOS>MOLECULE
*****
 32 35 0 0 0
SMALL
GASTEIGER

@<TRIPOS>ATOM
      1 C         143.0125  143.7987  162.8330 C.ar    1  UNL1        0.1578
      2 C         144.4033  143.3585  162.4836 C.ar    1  UNL1        0.0745
      3 C         145.0879  142.3101  163.3094 C.ar    1  UNL1        0.1398
      4 O         146.4786  141.8700  162.9600 O.3     1  UNL1       -0.5053
      5 C         144.3817  141.7018  164.4848 C.ar    1  UNL1        0.0744
      6 C         142.9910  142.1420  164.8342 C.ar    1  UNL1        0.1543
      7 O         142.2849  141.5337  166.0095 O.2     1  UNL1       -0.4531
      8 C         140.8942  141.9738  166.3590 C.ar    1  UNL1        0.1484
      9 C         140.2095  143.0222  165.5331 C.ar    1  UNL1        0.0797
     10 C         140.9156  143.6305  164.3578 C.ar    1  UNL1        0.2046
     11 O         140.2310  144.6790  163.5319 O.2     1  UNL1       -0.2863
     12 C         142.3064  143.1904  164.0084 C.ar    1  UNL1        0.1083
     13 H         146.9197  142.2499  162.2258 H       1  UNL1        0.2922
     14 C         140.1881  141.3655  167.5343 C.ar    1  UNL1        0.0349
     15 C         139.3583  140.1292  167.3531 C.ar    1  UNL1        0.0061
     16 C         138.6522  139.5209  168.5284 C.ar    1  UNL1        0.0370
     17 C         138.7759  140.1489  169.8850 C.ar    1  UNL1        0.1387
     18 C         139.6057  141.3853  170.0662 C.ar    1  UNL1        0.0370
     19 C         140.3118  141.9936  168.8909 C.ar    1  UNL1        0.0061
     20 O         138.0698  139.5406  171.0603 O.3     1  UNL1       -0.4714
     21 C         136.6482  139.0812  170.9257 C.3     1  UNL1        0.2525
     22 O         142.3279  144.8471  162.0072 O.3     1  UNL1       -0.4207
     23 C         141.7619  144.4926  160.6641 C.2     1  UNL1        0.3457
     24 O         141.7636  145.5060  159.5581 O.2     1  UNL1       -0.2445
     25 C         140.0587  140.3886  159.9524 C.ar    1  UNL1        0.1387
     26 C         141.5110  140.6543  159.6870 C.ar    1  UNL1        0.0371
     27 C         142.0787  142.0222  159.9242 C.ar    1  UNL1        0.0096
     28 C         141.1941  143.1246  160.4268 C.ar    1  UNL1        0.0762
     29 C         139.7419  142.8589  160.6922 C.ar    1  UNL1        0.0096
     30 C         139.1742  141.4908  160.4549 C.ar    1  UNL1        0.0371
     31 C         139.1467  138.1393  160.8791 C.3     1  UNL1        0.2525
     32 O         139.4910  139.0206  159.7151 O.3     1  UNL1       -0.4714
@<TRIPOS>BOND
     1    31    32    1
     2    32    25    1
     3    25    26   ar
     4    26    27   ar
     5    27    28   ar
     6    28    23    1
     7    23    24    2
     8    23    22    1
     9    22     1    1
    10     1     2   ar
    11     2     3   ar
    12     3     4    1
    13     3     5   ar
    14     5     6   ar
    15     6     7   ar
    16     7     8   ar
    17     8    14    1
    18    14    15   ar
    19    15    16   ar
    20    16    17   ar
    21    17    20    1
    22    20    21    1
    23    17    18   ar
    24    18    19   ar
    25     8     9   ar
    26     9    10   ar
    27    10    11    2
    28    10    12   ar
    29    28    29   ar
    30    29    30   ar
    31    30    25   ar
    32    12     1   ar
    33    12     6   ar
    34    19    14   ar
    35     4    13    1
@<TRIPOS>MOLECULE
*****
 32 35 0 0 0
SMALL
GASTEIGER

@<TRIPOS>ATOM
      1 C         138.9561  139.4969  164.3904 C.ar    1  UNL1        0.1578
      2 C         139.6453  138.1647  164.3782 C.ar    1  UNL1        0.0745
      3 C         140.5003  137.7733  163.2096 C.ar    1  UNL1        0.1398
      4 O         141.1896  136.4410  163.1975 O.3     1  UNL1       -0.5053
      5 C         140.6661  138.7141  162.0532 C.ar    1  UNL1        0.0744
      6 C         139.9769  140.0463  162.0653 C.ar    1  UNL1        0.1543
      7 O         140.1428  140.9871  160.9089 O.2     1  UNL1       -0.4531
      8 C         139.4536  142.3193  160.9210 C.ar    1  UNL1        0.1484
      9 C         138.5985  142.7107  162.0896 C.ar    1  UNL1        0.0797
     10 C         138.4326  141.7699  163.2461 C.ar    1  UNL1        0.2046
     11 O         137.5776  142.1613  164.4147 O.2     1  UNL1       -0.2863
     12 C         139.1219  140.4377  163.2339 C.ar    1  UNL1        0.1083
     13 H         141.0860  135.8533  163.9199 H       1  UNL1        0.2922
     14 C         139.6194  143.2601  159.7645 C.ar    1  UNL1        0.0349
     15 C         140.1877  144.6302  159.9878 C.ar    1  UNL1        0.0061
     16 C         140.3535  145.5710  158.8314 C.ar    1  UNL1        0.0370
     17 C         139.9511  145.1417  157.4516 C.ar    1  UNL1        0.1387
     18 C         139.3828  143.7715  157.2283 C.ar    1  UNL1        0.0370
     19 C         139.2170  142.8307  158.3847 C.ar    1  UNL1        0.0061
     20 O         140.1169  146.0825  156.2952 O.3     1  UNL1       -0.4714
     21 C         139.2065  147.2662  156.1548 C.3     1  UNL1        0.2525
     22 O         138.1010  139.8883  165.5590 O.3     1  UNL1       -0.4207
     23 C         138.3300  139.2576  166.9006 C.2     1  UNL1        0.3457
     24 O         137.5487  138.0413  167.3007 O.2     1  UNL1       -0.2445
     25 C         141.3612  141.0145  169.7247 C.ar    1  UNL1        0.1387
     26 C         139.9529  140.7816  170.1859 C.ar    1  UNL1        0.0371
     27 C         138.9426  140.1960  169.2446 C.ar    1  UNL1        0.0096
     28 C         139.3404  139.8432  167.8419 C.ar    1  UNL1        0.0762
     29 C         140.7486  140.0761  167.3807 C.ar    1  UNL1        0.0096
     30 C         141.7590  140.6617  168.3222 C.ar    1  UNL1        0.0371
     31 C         142.8793  142.9947  170.4486 C.3     1  UNL1        0.2525
     32 O         142.3715  141.6001  170.6661 O.3     1  UNL1       -0.4714
@<TRIPOS>BOND
     1    31    32    1
     2    32    25    1
     3    25    26   ar
     4    26    27   ar
     5    27    28   ar
     6    28    23    1
     7    23    24    2
     8    23    22    1
     9    22     1    1
    10     1     2   ar
    11     2     3   ar
    12     3     4    1
    13     3     5   ar
    14     5     6   ar
    15     6     7   ar
    16     7     8   ar
    17     8    14    1
    18    14    15   ar
    19    15    16   ar
    20    16    17   ar
    21    17    20    1
    22    20    21    1
    23    17    18   ar
    24    18    19   ar
    25     8     9   ar
    26     9    10   ar
    27    10    11    2
    28    10    12   ar
    29    28    29   ar
    30    29    30   ar
    31    30    25   ar
    32    12     1   ar
    33    12     6   ar
    34    19    14   ar
    35     4    13    1
@<TRIPOS>MOLECULE
*****
 32 35 0 0 0
SMALL
GASTEIGER

@<TRIPOS>ATOM
      1 C         141.0806  144.7736  163.4072 C.ar    1  UNL1        0.1578
      2 C         142.1240  144.1133  164.2589 C.ar    1  UNL1        0.0745
      3 C         143.3304  143.4918  163.6199 C.ar    1  UNL1        0.1398
      4 O         144.3739  142.8315  164.4716 O.3     1  UNL1       -0.5053
      5 C         143.4934  143.5306  162.1293 C.ar    1  UNL1        0.0744
      6 C         142.4500  144.1909  161.2777 C.ar    1  UNL1        0.1543
      7 O         142.6130  144.2296  159.7870 O.2     1  UNL1       -0.4531
      8 C         141.5696  144.8899  158.9354 C.ar    1  UNL1        0.1484
      9 C         140.3631  145.5114  159.5744 C.ar    1  UNL1        0.0797
     10 C         140.2001  145.4726  161.0650 C.ar    1  UNL1        0.2046
     11 O         138.9937  146.0941  161.7039 O.2     1  UNL1       -0.2863
     12 C         141.2436  144.8123  161.9166 C.ar    1  UNL1        0.1083
     13 H         144.2721  142.8073  165.4027 H       1  UNL1        0.2922
     14 C         141.7326  144.9286  157.4448 C.ar    1  UNL1        0.0349
     15 C         142.6601  143.9646  156.7664 C.ar    1  UNL1        0.0061
     16 C         142.8231  144.0033  155.2758 C.ar    1  UNL1        0.0370
     17 C         142.0586  145.0062  154.4636 C.ar    1  UNL1        0.1387
     18 C         141.1310  145.9703  155.1419 C.ar    1  UNL1        0.0370
     19 C         140.9680  145.9315  156.6325 C.ar    1  UNL1        0.0061
     20 O         142.2216  145.0449  152.9729 O.3     1  UNL1       -0.4714
     21 C         143.3216  145.8596  152.3597 C.3     1  UNL1        0.2525
     22 O         139.8741  145.3951  164.0462 O.3     1  UNL1       -0.4207
     23 C         138.8414  144.5268  164.7016 C.2     1  UNL1        0.3457
     24 O         138.0673  145.0407  165.8792 O.2     1  UNL1       -0.2445
     25 C         138.0658  140.3801  163.1353 C.ar    1  UNL1        0.1387
     26 C         138.8066  140.5679  164.4260 C.ar    1  UNL1        0.0371
     27 C         139.0651  141.9501  164.9482 C.ar    1  UNL1        0.0096
     28 C         138.5829  143.1446  164.1795 C.ar    1  UNL1        0.0762
     29 C         137.8421  142.9568  162.8888 C.ar    1  UNL1        0.0096
     30 C         137.5836  141.5745  162.3667 C.ar    1  UNL1        0.0371
     31 C         138.7621  137.8854  162.9308 C.3     1  UNL1        0.2525
     32 O         137.8073  138.9979  162.6132 O.3     1  UNL1       -0.4714
@<TRIPOS>BOND
     1    31    32    1
     2    32    25    1
     3    25    26   ar
     4    26    27   ar
     5    27    28   ar
     6    28    23    1
     7    23    24    2
     8    23    22    1
     9    22     1    1
    10     1     2   ar
    11     2     3   ar
    12     3     4    1
    13     3     5   ar
    14     5     6   ar
    15     6     7   ar
    16     7     8   ar
    17     8    14    1
    18    14    15   ar
    19    15    16   ar
    20    16    17   ar
    21    17    20    1
    22    20    21    1
    23    17    18   ar
    24    18    19   ar
    25     8     9   ar
    26     9    10   ar
    27    10    11    2
    28    10    12   ar
    29    28    29   ar
    30    29    30   ar
    31    30    25   ar
    32    12     1   ar
    33    12     6   ar
    34    19    14   ar
    35     4    13    1
@<TRIPOS>MOLECULE
*****
 32 35 0 0 0
SMALL
GASTEIGER

@<TRIPOS>ATOM
      1 C         138.0289  140.6389  164.0057 C.ar    1  UNL1        0.1578
      2 C         137.5783  142.0695  164.0206 C.ar    1  UNL1        0.0745
      3 C         137.7775  142.9311  162.8090 C.ar    1  UNL1        0.1398
      4 O         137.3270  144.3618  162.8238 O.3     1  UNL1       -0.5053
      5 C         138.4273  142.3621  161.5826 C.ar    1  UNL1        0.0744
      6 C         138.8779  140.9315  161.5678 C.ar    1  UNL1        0.1543
      7 O         139.5276  140.3625  160.3414 O.2     1  UNL1       -0.4531
      8 C         139.9782  138.9318  160.3266 C.ar    1  UNL1        0.1484
      9 C         139.7790  138.0701  161.5382 C.ar    1  UNL1        0.0797
     10 C         139.1292  138.6392  162.7646 C.ar    1  UNL1        0.2046
     11 O         138.9300  137.7775  163.9761 O.2     1  UNL1       -0.2863
     12 C         138.6786  140.0699  162.7794 C.ar    1  UNL1        0.1083
     13 H         136.9211  144.7173  163.5899 H       1  UNL1        0.2922
     14 C         140.6280  138.3628  159.1002 C.ar    1  UNL1        0.0349
     15 C         139.8156  138.1283  157.8613 C.ar    1  UNL1        0.0061
     16 C         140.4654  137.5593  156.6349 C.ar    1  UNL1        0.0370
     17 C         141.9275  137.2248  156.6474 C.ar    1  UNL1        0.1387
     18 C         142.7399  137.4593  157.8864 C.ar    1  UNL1        0.0370
     19 C         142.0902  138.0283  159.1128 C.ar    1  UNL1        0.0061
     20 O         142.5773  136.6558  155.4211 O.3     1  UNL1       -0.4714
     21 C         144.0629  136.4521  155.3854 C.3     1  UNL1        0.2525
     22 O         137.8296  139.7772  165.2173 O.3     1  UNL1       -0.4207
     23 C         138.8410  139.7952  166.3250 C.2     1  UNL1        0.3457
     24 O         138.4997  139.2066  167.6618 O.2     1  UNL1       -0.2445
     25 C         142.8988  141.6150  165.6374 C.ar    1  UNL1        0.1387
     26 C         141.7600  142.4745  166.1006 C.ar    1  UNL1        0.0371
     27 C         140.4074  141.8680  166.3297 C.ar    1  UNL1        0.0096
     28 C         140.1936  140.4018  166.0958 C.ar    1  UNL1        0.0762
     29 C         141.3323  139.5423  165.6326 C.ar    1  UNL1        0.0096
     30 C         142.6849  140.1489  165.4035 C.ar    1  UNL1        0.0371
     31 C         144.3847  143.7017  165.2039 C.3     1  UNL1        0.2525
     32 O         144.2513  142.2216  165.4082 O.3     1  UNL1       -0.4714
@<TRIPOS>BOND
     1    31    32    1
     2    32    25    1
     3    25    26   ar
     4    26    27   ar
     5    27    28   ar
     6    28    23    1
     7    23    24    2
     8    23    22    1
     9    22     1    1
    10     1     2   ar
    11     2     3   ar
    12     3     4    1
    13     3     5   ar
    14     5     6   ar
    15     6     7   ar
    16     7     8   ar
    17     8    14    1
    18    14    15   ar
    19    15    16   ar
    20    16    17   ar
    21    17    20    1
    22    20    21    1
    23    17    18   ar
    24    18    19   ar
    25     8     9   ar
    26     9    10   ar
    27    10    11    2
    28    10    12   ar
    29    28    29   ar
    30    29    30   ar
    31    30    25   ar
    32    12     1   ar
    33    12     6   ar
    34    19    14   ar
    35     4    13    1
@<TRIPOS>MOLECULE
*****
 32 35 0 0 0
SMALL
GASTEIGER

@<TRIPOS>ATOM
      1 C         141.4884  138.2518  158.8491 C.ar    1  UNL1        0.1578
      2 C         140.5644  138.6919  157.7526 C.ar    1  UNL1        0.0745
      3 C         139.2567  139.3442  158.0905 C.ar    1  UNL1        0.1398
      4 O         138.3326  139.7844  156.9939 O.3     1  UNL1       -0.5053
      5 C         138.8729  139.5564  159.5249 C.ar    1  UNL1        0.0744
      6 C         139.7969  139.1163  160.6215 C.ar    1  UNL1        0.1543
      7 O         139.4131  139.3286  162.0560 O.2     1  UNL1       -0.4531
      8 C         140.3371  138.8884  163.1525 C.ar    1  UNL1        0.1484
      9 C         141.6450  138.2361  162.8147 C.ar    1  UNL1        0.0797
     10 C         142.0287  138.0239  161.3802 C.ar    1  UNL1        0.2046
     11 O         143.3365  137.3715  161.0423 O.2     1  UNL1       -0.2863
     12 C         141.1047  138.4640  160.2836 C.ar    1  UNL1        0.1083
     13 H         138.5723  139.6518  156.0978 H       1  UNL1        0.2922
     14 C         139.9534  139.1007  164.5870 C.ar    1  UNL1        0.0349
     15 C         138.5722  138.7480  165.0539 C.ar    1  UNL1        0.0061
     16 C         138.1885  138.9603  166.4884 C.ar    1  UNL1        0.0370
     17 C         139.1858  139.5251  167.4559 C.ar    1  UNL1        0.1387
     18 C         140.5670  139.8778  166.9890 C.ar    1  UNL1        0.0370
     19 C         140.9508  139.6656  165.5545 C.ar    1  UNL1        0.0061
     20 O         138.8021  139.7373  168.8904 O.3     1  UNL1       -0.4714
     21 C         139.4865  140.7977  169.7009 C.3     1  UNL1        0.2525
     22 O         142.7963  137.5994  158.5113 O.3     1  UNL1       -0.4207
     23 C         143.0843  137.1837  157.0991 C.2     1  UNL1        0.3457
     24 O         143.7520  138.1410  156.1568 O.2     1  UNL1       -0.2445
     25 C         141.9453  133.0649  155.6892 C.ar    1  UNL1        0.1387
     26 C         141.2976  134.2723  155.0788 C.ar    1  UNL1        0.0371
     27 C         141.6773  135.6453  155.5487 C.ar    1  UNL1        0.0096
     28 C         142.7046  135.8108  156.6292 C.ar    1  UNL1        0.0762
     29 C         143.3523  134.6033  157.2396 C.ar    1  UNL1        0.0096
     30 C         142.9726  133.2304  156.7696 C.ar    1  UNL1        0.0371
     31 C         142.2415  130.4862  155.8019 C.3     1  UNL1        0.2525
     32 O         141.5656  131.6920  155.2193 O.3     1  UNL1       -0.4714
@<TRIPOS>BOND
     1    31    32    1
     2    32    25    1
     3    25    26   ar
     4    26    27   ar
     5    27    28   ar
     6    28    23    1
     7    23    24    2
     8    23    22    1
     9    22     1    1
    10     1     2   ar
    11     2     3   ar
    12     3     4    1
    13     3     5   ar
    14     5     6   ar
    15     6     7   ar
    16     7     8   ar
    17     8    14    1
    18    14    15   ar
    19    15    16   ar
    20    16    17   ar
    21    17    20    1
    22    20    21    1
    23    17    18   ar
    24    18    19   ar
    25     8     9   ar
    26     9    10   ar
    27    10    11    2
    28    10    12   ar
    29    28    29   ar
    30    29    30   ar
    31    30    25   ar
    32    12     1   ar
    33    12     6   ar
    34    19    14   ar
    35     4    13    1
@<TRIPOS>MOLECULE
*****
 32 35 0 0 0
SMALL
GASTEIGER

@<TRIPOS>ATOM
      1 C         140.1847  138.2059  161.9582 C.ar    1  UNL1        0.1578
      2 C         139.0485  138.3798  160.9946 C.ar    1  UNL1        0.0745
      3 C         137.8587  139.2081  161.3796 C.ar    1  UNL1        0.1398
      4 O         136.7224  139.3820  160.4160 O.3     1  UNL1       -0.5053
      5 C         137.8052  139.8626  162.7283 C.ar    1  UNL1        0.0744
      6 C         138.9415  139.6888  163.6919 C.ar    1  UNL1        0.1543
      7 O         138.8880  140.3432  165.0405 O.2     1  UNL1       -0.4531
      8 C         140.0243  140.1694  166.0041 C.ar    1  UNL1        0.1484
      9 C         141.2141  139.3410  165.6191 C.ar    1  UNL1        0.0797
     10 C         141.2676  138.6865  164.2705 C.ar    1  UNL1        0.2046
     11 O         142.4574  137.8582  163.8855 O.2     1  UNL1       -0.2863
     12 C         140.1312  138.8604  163.3069 C.ar    1  UNL1        0.1083
     13 H         136.7557  138.9732  159.5735 H       1  UNL1        0.2922
     14 C         139.9708  140.8238  167.3528 C.ar    1  UNL1        0.0349
     15 C         139.3481  140.1035  168.5118 C.ar    1  UNL1        0.0061
     16 C         139.2946  140.7580  169.8604 C.ar    1  UNL1        0.0370
     17 C         139.8638  142.1328  170.0500 C.ar    1  UNL1        0.1387
     18 C         140.4865  142.8532  168.8909 C.ar    1  UNL1        0.0370
     19 C         140.5400  142.1987  167.5423 C.ar    1  UNL1        0.0061
     20 O         139.8103  142.7873  171.3987 O.3     1  UNL1       -0.4714
     21 C         138.8465  143.9087  171.6504 C.3     1  UNL1        0.2525
     22 O         141.3746  137.3776  161.5733 O.3     1  UNL1       -0.4207
     23 C         142.4259  137.9497  160.6692 C.2     1  UNL1        0.3457
     24 O         143.0339  137.0992  159.5935 O.2     1  UNL1       -0.2445
     25 C         143.7560  142.2177  161.1839 C.ar    1  UNL1        0.1387
     26 C         144.4991  141.1122  161.8736 C.ar    1  UNL1        0.0371
     27 C         144.0557  139.6896  161.7021 C.ar    1  UNL1        0.0096
     28 C         142.8693  139.3724  160.8408 C.ar    1  UNL1        0.0762
     29 C         142.1262  140.4779  160.1510 C.ar    1  UNL1        0.0096
     30 C         142.5696  141.9006  160.3226 C.ar    1  UNL1        0.0371
     31 C         144.2147  144.2618  162.7207 C.3     1  UNL1        0.2525
     32 O         144.1994  143.6404  161.3555 O.3     1  UNL1       -0.4714
@<TRIPOS>BOND
     1    31    32    1
     2    32    25    1
     3    25    26   ar
     4    26    27   ar
     5    27    28   ar
     6    28    23    1
     7    23    24    2
     8    23    22    1
     9    22     1    1
    10     1     2   ar
    11     2     3   ar
    12     3     4    1
    13     3     5   ar
    14     5     6   ar
    15     6     7   ar
    16     7     8   ar
    17     8    14    1
    18    14    15   ar
    19    15    16   ar
    20    16    17   ar
    21    17    20    1
    22    20    21    1
    23    17    18   ar
    24    18    19   ar
    25     8     9   ar
    26     9    10   ar
    27    10    11    2
    28    10    12   ar
    29    28    29   ar
    30    29    30   ar
    31    30    25   ar
    32    12     1   ar
    33    12     6   ar
    34    19    14   ar
    35     4    13    1
@<TRIPOS>MOLECULE
*****
 32 35 0 0 0
SMALL
GASTEIGER

@<TRIPOS>ATOM
      1 C         142.4594  143.3946  164.1231 C.ar    1  UNL1        0.1578
      2 C         143.7581  142.7246  164.4613 C.ar    1  UNL1        0.0745
      3 C         144.7882  142.5036  163.3937 C.ar    1  UNL1        0.1398
      4 O         146.0870  141.8336  163.7318 O.3     1  UNL1       -0.5053
      5 C         144.5197  142.9525  161.9879 C.ar    1  UNL1        0.0744
      6 C         143.2209  143.6225  161.6497 C.ar    1  UNL1        0.1543
      7 O         142.9524  144.0714  160.2439 O.2     1  UNL1       -0.4531
      8 C         141.6537  144.7414  159.9057 C.ar    1  UNL1        0.1484
      9 C         140.6234  144.9625  160.9733 C.ar    1  UNL1        0.0797
     10 C         140.8920  144.5136  162.3792 C.ar    1  UNL1        0.2046
     11 O         139.8619  144.7346  163.4468 O.2     1  UNL1       -0.2863
     12 C         142.1908  143.8435  162.7173 C.ar    1  UNL1        0.1083
     13 H         146.2548  141.5531  164.6100 H       1  UNL1        0.2922
     14 C         141.3851  145.1903  158.4999 C.ar    1  UNL1        0.0349
     15 C         142.3597  144.8611  157.4083 C.ar    1  UNL1        0.0061
     16 C         142.0911  145.3100  156.0024 C.ar    1  UNL1        0.0370
     17 C         140.8479  146.0882  155.6882 C.ar    1  UNL1        0.1387
     18 C         139.8732  146.4175  156.7798 C.ar    1  UNL1        0.0370
     19 C         140.1418  145.9686  158.1857 C.ar    1  UNL1        0.0061
     20 O         140.5793  146.5371  154.2824 O.3     1  UNL1       -0.4714
     21 C         140.2545  147.9747  154.0033 C.3     1  UNL1        0.2525
     22 O         141.4292  143.6157  165.1908 O.3     1  UNL1       -0.4207
     23 C         140.7170  142.4444  165.7999 C.2     1  UNL1        0.3457
     24 O         139.3710  142.0327  165.2814 O.2     1  UNL1       -0.2445
     25 C         142.6185  140.1657  169.1824 C.ar    1  UNL1        0.1387
     26 C         142.2823  139.4632  167.9004 C.ar    1  UNL1        0.0371
     27 C         141.6485  140.2228  166.7729 C.ar    1  UNL1        0.0096
     28 C         141.3508  141.6849  166.9274 C.ar    1  UNL1        0.0762
     29 C         141.6870  142.3873  168.2094 C.ar    1  UNL1        0.0096
     30 C         142.3208  141.6277  169.3369 C.ar    1  UNL1        0.0371
     31 C         143.1321  137.9121  170.3688 C.3     1  UNL1        0.2525
     32 O         143.2523  139.4061  170.3099 O.3     1  UNL1       -0.4714
@<TRIPOS>BOND
     1    31    32    1
     2    32    25    1
     3    25    26   ar
     4    26    27   ar
     5    27    28   ar
     6    28    23    1
     7    23    24    2
     8    23    22    1
     9    22     1    1
    10     1     2   ar
    11     2     3   ar
    12     3     4    1
    13     3     5   ar
    14     5     6   ar
    15     6     7   ar
    16     7     8   ar
    17     8    14    1
    18    14    15   ar
    19    15    16   ar
    20    16    17   ar
    21    17    20    1
    22    20    21    1
    23    17    18   ar
    24    18    19   ar
    25     8     9   ar
    26     9    10   ar
    27    10    11    2
    28    10    12   ar
    29    28    29   ar
    30    29    30   ar
    31    30    25   ar
    32    12     1   ar
    33    12     6   ar
    34    19    14   ar
    35     4    13    1
@<TRIPOS>MOLECULE
*****
 32 35 0 0 0
SMALL
GASTEIGER

@<TRIPOS>ATOM
      1 C         138.9947  142.8606  160.6921 C.ar    1  UNL1        0.1578
      2 C         139.8880  143.8205  159.9637 C.ar    1  UNL1        0.0745
      3 C         140.9838  144.5318  160.7007 C.ar    1  UNL1        0.1398
      4 O         141.8772  145.4917  159.9724 O.3     1  UNL1       -0.5053
      5 C         141.1863  144.2832  162.1661 C.ar    1  UNL1        0.0744
      6 C         140.2929  143.3233  162.8944 C.ar    1  UNL1        0.1543
      7 O         140.4954  143.0747  164.3597 O.2     1  UNL1       -0.4531
      8 C         139.6021  142.1148  165.0881 C.ar    1  UNL1        0.1484
      9 C         138.5062  141.4034  164.3511 C.ar    1  UNL1        0.0797
     10 C         138.3037  141.6520  162.8857 C.ar    1  UNL1        0.2046
     11 O         137.2079  140.9407  162.1487 O.2     1  UNL1       -0.2863
     12 C         139.1971  142.6120  162.1574 C.ar    1  UNL1        0.1083
     13 H         141.7507  145.6471  159.0571 H       1  UNL1        0.2922
     14 C         139.8046  141.8662  166.5534 C.ar    1  UNL1        0.0349
     15 C         139.5271  140.5092  167.1293 C.ar    1  UNL1        0.0061
     16 C         139.7296  140.2606  168.5946 C.ar    1  UNL1        0.0370
     17 C         140.2095  141.3690  169.4841 C.ar    1  UNL1        0.1387
     18 C         140.4871  142.7260  168.9082 C.ar    1  UNL1        0.0370
     19 C         140.2846  142.9746  167.4429 C.ar    1  UNL1        0.0061
     20 O         140.4120  141.1204  170.9494 O.3     1  UNL1       -0.4714
     21 C         141.7959  140.9190  171.4917 C.3     1  UNL1        0.2525
     22 O         137.8988  142.1492  159.9551 O.3     1  UNL1       -0.4207
     23 C         138.2213  140.9668  159.0903 C.2     1  UNL1        0.3457
     24 O         137.3438  140.6312  157.9209 O.2     1  UNL1       -0.2445
     25 C         141.8214  138.4262  160.0041 C.ar    1  UNL1        0.1387
     26 C         140.5353  138.1975  160.7415 C.ar    1  UNL1        0.0371
     27 C         139.3353  139.0443  160.4369 C.ar    1  UNL1        0.0096
     28 C         139.4213  140.1199  159.3949 C.ar    1  UNL1        0.0762
     29 C         140.7074  140.3486  158.6575 C.ar    1  UNL1        0.0096
     30 C         141.9074  139.5017  158.9621 C.ar    1  UNL1        0.0371
     31 C         143.9636  137.9803  161.4050 C.3     1  UNL1        0.2525
     32 O         143.0214  137.5794  160.3087 O.3     1  UNL1       -0.4714
@<TRIPOS>BOND
     1    31    32    1
     2    32    25    1
     3    25    26   ar
     4    26    27   ar
     5    27    28   ar
     6    28    23    1
     7    23    24    2
     8    23    22    1
     9    22     1    1
    10     1     2   ar
    11     2     3   ar
    12     3     4    1
    13     3     5   ar
    14     5     6   ar
    15     6     7   ar
    16     7     8   ar
    17     8    14    1
    18    14    15   ar
    19    15    16   ar
    20    16    17   ar
    21    17    20    1
    22    20    21    1
    23    17    18   ar
    24    18    19   ar
    25     8     9   ar
    26     9    10   ar
    27    10    11    2
    28    10    12   ar
    29    28    29   ar
    30    29    30   ar
    31    30    25   ar
    32    12     1   ar
    33    12     6   ar
    34    19    14   ar
    35     4    13    1
@<TRIPOS>MOLECULE
*****
 32 35 0 0 0
SMALL
GASTEIGER

@<TRIPOS>ATOM
      1 C         138.0940  141.9166  164.0099 C.ar    1  UNL1        0.1578
      2 C         138.1348  140.9792  165.1801 C.ar    1  UNL1        0.0745
      3 C         138.3856  139.5167  164.9611 C.ar    1  UNL1        0.1398
      4 O         138.4264  138.5792  166.1314 O.3     1  UNL1       -0.5053
      5 C         138.5955  138.9915  163.5718 C.ar    1  UNL1        0.0744
      6 C         138.5546  139.9289  162.4015 C.ar    1  UNL1        0.1543
      7 O         138.7646  139.4038  161.0122 O.2     1  UNL1       -0.4531
      8 C         138.7237  140.3412  159.8419 C.ar    1  UNL1        0.1484
      9 C         138.4729  141.8038  160.0610 C.ar    1  UNL1        0.0797
     10 C         138.2630  142.3290  161.4503 C.ar    1  UNL1        0.2046
     11 O         138.0123  143.7915  161.6693 O.2     1  UNL1       -0.2863
     12 C         138.3039  141.3915  162.6206 C.ar    1  UNL1        0.1083
     13 H         138.2953  138.9072  166.9992 H       1  UNL1        0.2922
     14 C         138.9336  139.8160  158.4526 C.ar    1  UNL1        0.0349
     15 C         139.7418  138.5712  158.2355 C.ar    1  UNL1        0.0061
     16 C         139.9517  138.0460  156.8462 C.ar    1  UNL1        0.0370
     17 C         139.3535  138.7658  155.6740 C.ar    1  UNL1        0.1387
     18 C         138.5453  140.0107  155.8911 C.ar    1  UNL1        0.0370
     19 C         138.3354  140.5359  157.2804 C.ar    1  UNL1        0.0061
     20 O         139.5634  138.2406  154.2847 O.3     1  UNL1       -0.4714
     21 C         138.6102  137.2344  153.7113 C.3     1  UNL1        0.2525
     22 O         137.8432  143.3793  164.2289 O.3     1  UNL1       -0.4207
     23 C         138.8546  144.2126  164.9586 C.2     1  UNL1        0.3457
     24 O         138.4014  145.2665  165.9250 O.2     1  UNL1       -0.2445
     25 C         143.2488  143.5508  164.2489 C.ar    1  UNL1        0.1387
     26 C         142.4826  144.4998  163.3757 C.ar    1  UNL1        0.0371
     27 C         141.0179  144.7204  163.6123 C.ar    1  UNL1        0.0096
     28 C         140.3193  143.9920  164.7221 C.ar    1  UNL1        0.0762
     29 C         141.0855  143.0430  165.5952 C.ar    1  UNL1        0.0096
     30 C         142.5503  142.8224  165.3586 C.ar    1  UNL1        0.0371
     31 C         145.2314  141.9463  163.7541 C.3     1  UNL1        0.2525
     32 O         144.7134  143.3302  164.0123 O.3     1  UNL1       -0.4714
@<TRIPOS>BOND
     1    31    32    1
     2    32    25    1
     3    25    26   ar
     4    26    27   ar
     5    27    28   ar
     6    28    23    1
     7    23    24    2
     8    23    22    1
     9    22     1    1
    10     1     2   ar
    11     2     3   ar
    12     3     4    1
    13     3     5   ar
    14     5     6   ar
    15     6     7   ar
    16     7     8   ar
    17     8    14    1
    18    14    15   ar
    19    15    16   ar
    20    16    17   ar
    21    17    20    1
    22    20    21    1
    23    17    18   ar
    24    18    19   ar
    25     8     9   ar
    26     9    10   ar
    27    10    11    2
    28    10    12   ar
    29    28    29   ar
    30    29    30   ar
    31    30    25   ar
    32    12     1   ar
    33    12     6   ar
    34    19    14   ar
    35     4    13    1
