@<TRIPOS>MOLECULE
*****
 106 108 0 0 0
SMALL
GASTEIGER

@<TRIPOS>ATOM
      1 C         142.0622  141.3069  166.8963 C.2     1  PHE1        0.2406
      2 O         141.8822  142.5309  167.7446 O.2     1  PHE1       -0.2733
      3 N         142.5636  141.4370  165.4886 N.am    1  PHE1       -0.2970
      4 H         142.6817  140.6337  164.9319 H       1  PHE1        0.1499
      5 CA        142.8852  142.7911  164.9291 C.3     1  PHE1        0.1485
      6 C         141.7904  143.6514  164.3710 C.2     1  PHE1        0.2407
      7 O         142.0139  145.1229  164.1848 O.2     1  PHE1       -0.2733
      8 N         140.4721  143.0400  163.9991 N.am    2  UNK2       -0.2950
      9 H         140.3254  142.0742  164.1213 H       2  UNK2        0.1499
     10 C         139.3773  143.9003  163.4410 C.3     2  UNK2        0.1782
     11 C         139.3950  144.2910  161.9930 C.2     2  UNK2        0.2433
     12 O         138.2708  143.6828  161.2080 O.2     2  UNK2       -0.2732
     13 N         140.4680  145.2023  161.4751 N.am    2  UNK2       -0.2941
     14 H         141.1607  145.5440  162.0857 H       2  UNK2        0.1500
     15 C         140.4857  145.5931  160.0270 C.3     2  UNK2        0.1890
     16 C         139.5849  146.7910  159.9674 C.2     2  UNK2        0.2443
     17 O         139.1360  146.9735  161.3870 O.2     2  UNK2       -0.2732
     18 N         138.8988  147.9015  159.2284 N.am    2  UNK2       -0.2969
     19 C         138.5849  148.6701  157.9791 C.3     2  UNK2        0.1486
     20 C         137.6573  149.7521  158.4471 C.3     2  UNK2        0.0312
     21 C         138.7147  148.9210  156.5060 C.2     2  UNK2        0.2406
     22 O         137.8494  150.1230  156.2689 O.2     2  UNK2       -0.2733
     23 N         139.2589  148.5965  155.1464 N.am    2  UNK2       -0.2969
     24 C         140.0925  147.7710  154.2118 C.3     2  UNK2        0.1519
     25 C         141.0247  146.6336  153.9162 C.2     2  UNK2        0.2408
     26 O         141.2650  146.7408  152.4394 O.2     2  UNK2       -0.2733
     27 N         141.8419  145.4448  154.3275 N.am    2  UNK2       -0.2954
     28 C         142.3569  144.4772  155.3513 C.3     2  UNK2        0.1714
     29 C         142.4517  143.9521  156.7532 C.2     2  UNK2        0.3349
     30 O         143.3750  142.7759  156.6344 O.2     2  UNK2       -0.2483
     31 O         142.1046  143.9901  158.2120 O.3     2  UNK2       -0.4489
     32 C         141.3951  144.5823  159.3935 C.3     2  UNK2        0.1956
     33 C         141.9112  143.6136  160.4159 C.3     2  UNK2        0.0497
     34 H         138.3887  148.3702  159.9279 H       2  UNK2        0.1499
     35 H         138.8618  149.2835  154.5636 H       2  UNK2        0.1499
     36 H         142.2563  145.1418  153.4875 H       2  UNK2        0.1499
     37 C         143.2348  143.5523  154.5614 C.3     2  UNK2        0.0289
     38 C         142.6724  142.2784  154.0037 C.3     2  UNK2        0.0023
     39 C         144.6750  143.9012  154.3292 C.3     2  UNK2        0.0022
     40 C         145.1196  144.3954  152.9846 C.3     2  UNK2        0.0001
     41 C         139.8866  148.4226  152.8765 C.3     2  UNK2        0.0693
     42 C         140.1804  149.8830  152.7014 C.3     2  UNK2        0.1690
     43 C         141.5417  150.5127  152.6843 C.3     2  UNK2        0.2006
     44 N         141.3671  151.9891  152.4850 N.pl3   2  UNK2       -0.2224
     45 C         139.8978  152.2720  152.3788 C.cat   2  UNK2        0.3634
     46 N         139.2719  153.6198  152.1748 N.2     2  UNK2       -0.1334
     47 N         139.1644  150.9704  152.5126 N.pl3   2  UNK2       -0.2251
     48 H         142.0900  152.6554  152.4329 H       2  UNK2        0.2453
     49 H         139.8403  154.4199  152.0982 H       2  UNK2        0.3058
     50 H         138.1877  150.8507  152.4819 H       2  UNK2        0.2452
     51 C         138.2648  144.3696  164.3311 C.3     2  UNK2        0.1660
     52 O         138.5738  145.1853  165.5513 O.3     2  UNK2       -0.3798
     53 H         139.0709  144.6442  166.1845 H       2  UNK2        0.2105
     54 CB        144.3015  143.2850  164.9278 C.3     1  PHE1        0.0269
     55 CG2       144.7801  143.9137  165.6838 C.3     1  PHE1        0.0022
     56 CG1       145.2223  142.9191  163.8016 C.3     1  PHE1        0.0021
     57 CD1       145.7298  141.5133  163.6743 C.3     1  PHE1        0.0001
     58 CA        141.7406  139.9528  167.4558 C.3     1  PHE1        0.1485
     59 C         140.3332  139.0878  165.4506 C.2     1  PHE1        0.2406
     60 O         139.7329  140.4522  165.2834 O.2     1  PHE1       -0.2733
     61 N         141.3371  138.8381  166.5368 N.am    1  PHE1       -0.2970
     62 H         141.7311  137.9426  166.6465 H       1  PHE1        0.1499
     63 CA        139.9297  137.9731  164.5316 C.3     1  PHE1        0.1491
     64 C         141.1330  138.6658  162.3357 C.2     1  PHE1        0.2432
     65 O         140.6109  140.0635  162.4904 O.2     1  PHE1       -0.2732
     66 N         140.7924  137.6206  163.3563 N.am    1  PHE1       -0.2969
     67 H         141.1351  136.7033  163.2547 H       1  PHE1        0.1499
     68 CA        141.9957  138.3133  161.1603 C.3     1  PHE1        0.1782
     69 C         141.8615  139.7117  158.9747 C.2     1  PHE1        0.2407
     70 O         142.7690  140.7423  159.5784 O.2     1  PHE1       -0.2733
     71 N         141.4749  138.4972  159.7657 N.am    1  PHE1       -0.2950
     72 H         140.8793  137.8208  159.3695 H       1  PHE1        0.1499
     73 CA        141.3407  139.8955  157.5802 C.3     1  PHE1        0.1485
     74 N         142.2108  139.5627  156.4046 N.am    1  PHE1       -0.2972
     75 C         143.2078  138.4462  156.5017 C.2     1  PHE1        0.2374
     76 O         143.3347  137.6625  157.7744 O.2     1  PHE1       -0.2736
     77 H         142.1276  140.0771  155.5693 H       1  PHE1        0.1499
     78 CA        144.0780  138.1133  155.3261 C.3     1  PHE1        0.1359
     79 N         144.8107  136.8052  155.2818 N.3     1  PHE1       -0.2899
     80 C         144.0456  135.5154  155.3191 C.3     0  ACE0        0.0862
     81 H         145.4439  136.7951  156.0813 H       1  PHE1        0.1237
     82 CB        144.2155  139.0887  154.1948 C.3     1  PHE1        0.0514
     83 CG        145.4046  140.0009  154.1313 C.ar    1  PHE1       -0.0203
     84 CD1       146.0096  140.3532  152.8047 C.ar    1  PHE1       -0.0042
     85 CE1       147.1986  141.2654  152.7412 C.ar    1  PHE1       -0.0003
     86 CZ        147.7827  141.8252  154.0043 C.ar    1  PHE1       -0.0000
     87 CE2       147.1776  141.4729  155.3309 C.ar    1  PHE1       -0.0003
     88 CD2       145.9886  140.5607  155.3944 C.ar    1  PHE1       -0.0042
     89 CB        139.9496  140.4123  157.3612 C.3     1  PHE1        0.0269
     90 CG2       139.1772  139.6826  157.6198 C.3     1  PHE1        0.0022
     91 CD1       138.5267  142.1176  156.0134 C.3     1  PHE1        0.0001
     92 CG1       139.7395  141.8020  156.8376 C.3     1  PHE1        0.0021
     93 CB        143.3793  137.7769  161.3795 C.3     1  PHE1        0.1660
     94 O         144.5502  138.4213  160.6985 O.3     1  PHE1       -0.3798
     95 H         144.4768  138.2940  159.7397 H       1  PHE1        0.2105
     96 CB        138.6635  137.2109  164.7879 C.3     1  PHE1        0.0385
     97 CG        138.2375  136.9158  166.1955 C.3     1  PHE1        0.0870
     98 CD        137.4778  137.9439  166.9804 C.2     1  PHE1        0.2194
     99 NE2       137.4666  139.3744  166.5292 N.am    1  PHE1       -0.3288
    100 OE1       136.7293  137.5414  168.2163 O.2     1  PHE1       -0.2753
    101 HE21      137.9579  139.6385  165.7180 H       1  PHE1        0.1449
    102 HE22      136.9680  140.0491  167.0443 H       1  PHE1        0.1449
    103 CB        141.8225  139.7134  168.9343 C.3     1  PHE1        0.0269
    104 CG2       142.9494  138.9018  169.5014 C.3     1  PHE1        0.0022
    105 CG1       140.7776  140.2857  169.8458 C.3     1  PHE1        0.0021
    106 CD1       139.3486  140.3594  169.3957 C.3     1  PHE1        0.0001
@<TRIPOS>BOND
     1    91    92    1
     2    92    89    1
     3    89    90    1
     4    89    73    1
     5    73    74    1
     6    74    75   am
     7    75    76    2
     8    75    78    1
     9    78    82    1
    10    82    83    1
    11    83    84   ar
    12    84    85   ar
    13    85    86   ar
    14    86    87   ar
    15    87    88   ar
    16    78    79    1
    17    79    80    1
    18    73    69    1
    19    69    70    2
    20    69    71   am
    21    71    68    1
    22    68    93    1
    23    93    94    1
    24    68    64    1
    25    64    65    2
    26    64    66   am
    27    66    63    1
    28    63    96    1
    29    96    97    1
    30    97    98    1
    31    98    99   am
    32    98   100    2
    33    63    59    1
    34    59    60    2
    35    59    61   am
    36    58    61    1
    37    58     1    1
    38     1     2    2
    39     1     3   am
    40     5     3    1
    41     5     6    1
    42     6     7    2
    43     6     8   am
    44     8    10    1
    45    10    51    1
    46    51    52    1
    47    10    11    1
    48    11    12    2
    49    11    13   am
    50    15    13    1
    51    15    16    1
    52    16    17    2
    53    16    18   am
    54    18    19    1
    55    19    20    1
    56    19    21    1
    57    21    22    2
    58    21    23   am
    59    23    24    1
    60    24    41    1
    61    42    41    1
    62    42    43    1
    63    43    44    1
    64    44    45    1
    65    45    46    2
    66    45    47    1
    67    24    25    1
    68    25    26    2
    69    25    27   am
    70    28    27    1
    71    28    37    1
    72    37    38    1
    73    37    39    1
    74    39    40    1
    75    28    29    1
    76    29    30    2
    77    29    31    1
    78    31    32    1
    79    32    33    1
    80     5    54    1
    81    54    55    1
    82    54    56    1
    83    56    57    1
    84    58   103    1
    85   103   104    1
    86   103   105    1
    87   105   106    1
    88    88    83   ar
    89    32    15    1
    90    47    42    1
    91    74    77    1
    92    79    81    1
    93    71    72    1
    94    94    95    1
    95    66    67    1
    96    99   101    1
    97    99   102    1
    98    61    62    1
    99     3     4    1
   100     8     9    1
   101    52    53    1
   102    13    14    1
   103    18    34    1
   104    23    35    1
   105    44    48    1
   106    46    49    1
   107    47    50    1
   108    27    36    1
@<TRIPOS>MOLECULE
*****
 106 108 0 0 0
SMALL
GASTEIGER

@<TRIPOS>ATOM
      1 C         141.6688  141.8315  166.6730 C.2     1  PHE1        0.2406
      2 O         140.8606  143.0080  167.1340 O.2     1  PHE1       -0.2733
      3 N         142.5005  141.9341  165.4289 N.am    1  PHE1       -0.2970
      4 H         143.0310  141.1619  165.1263 H       1  PHE1        0.1499
      5 CA        142.5240  143.2132  164.6458 C.3     1  PHE1        0.1485
      6 C         141.2815  143.6931  163.9558 C.2     1  PHE1        0.2407
      7 O         140.9480  145.1555  163.9429 O.2     1  PHE1       -0.2733
      8 N         140.3726  142.7106  163.2787 N.am    2  UNK2       -0.2950
      9 H         140.5915  141.7507  163.2871 H       2  UNK2        0.1499
     10 C         139.1301  143.1904  162.5887 C.3     2  UNK2        0.1782
     11 C         139.2096  143.7328  161.1925 C.2     2  UNK2        0.2433
     12 O         138.1358  143.1959  160.2932 O.2     2  UNK2       -0.2732
     13 N         140.2887  144.7085  160.8272 N.am    2  UNK2       -0.2941
     14 H         140.9449  144.9929  161.5038 H       2  UNK2        0.1500
     15 C         140.3682  145.2509  159.4309 C.3     2  UNK2        0.1890
     16 C         139.5230  146.4892  159.4782 C.2     2  UNK2        0.2443
     17 O         139.0390  146.5395  160.8971 O.2     2  UNK2       -0.2732
     18 N         138.9094  147.7035  158.8464 N.am    2  UNK2       -0.2969
     19 C         138.6681  148.6154  157.6801 C.3     2  UNK2        0.1486
     20 C         137.7749  149.6834  158.2385 C.3     2  UNK2        0.0312
     21 C         138.8542  149.0163  156.2468 C.2     2  UNK2        0.2406
     22 O         138.0502  150.2760  156.1190 O.2     2  UNK2       -0.2733
     23 N         139.4252  148.8141  154.8745 N.am    2  UNK2       -0.2969
     24 C         140.2502  148.0552  153.8778 C.3     2  UNK2        0.1519
     25 C         141.1402  146.9135  153.4849 C.2     2  UNK2        0.2408
     26 O         141.4304  147.1669  152.0351 O.2     2  UNK2       -0.2733
     27 N         141.8915  145.6505  153.7859 N.am    2  UNK2       -0.2954
     28 C         142.3317  144.5556  154.7118 C.3     2  UNK2        0.1714
     29 C         142.3602  143.8796  156.0505 C.2     2  UNK2        0.3349
     30 O         143.2342  142.6808  155.8288 O.2     2  UNK2       -0.2483
     31 O         141.9703  143.7773  157.4953 O.3     2  UNK2       -0.4489
     32 C         141.2514  144.2722  158.7153 C.3     2  UNK2        0.1956
     33 C         141.6927  143.1764  159.6397 C.3     2  UNK2        0.0497
     34 H         138.3990  148.1179  159.5792 H       2  UNK2        0.1499
     35 H         139.0768  149.5774  154.3595 H       2  UNK2        0.1499
     36 H         142.3179  145.4201  152.9290 H       2  UNK2        0.1499
     37 C         143.1921  143.6805  153.8493 C.3     2  UNK2        0.0289
     38 C         144.6686  143.9311  153.7635 C.3     2  UNK2        0.0023
     39 C         142.5761  142.5548  153.0727 C.3     2  UNK2        0.0022
     40 C         143.4472  141.4846  152.4845 C.3     2  UNK2        0.0001
     41 C         140.1143  148.8551  152.6161 C.3     2  UNK2        0.0693
     42 C         140.1511  150.3536  152.6705 C.3     2  UNK2        0.1690
     43 C         141.3415  151.1940  153.0262 C.3     2  UNK2        0.2006
     44 N         140.9300  152.6346  152.9543 N.pl3   2  UNK2       -0.2224
     45 C         139.4852  152.6846  152.5541 C.cat   2  UNK2        0.3634
     46 N         138.6658  153.9264  152.3629 N.2     2  UNK2       -0.1334
     47 N         139.0038  151.2749  152.3788 N.pl3   2  UNK2       -0.2251
     48 H         141.5069  153.4111  153.1375 H       2  UNK2        0.2453
     49 H         139.0735  154.8116  152.5024 H       2  UNK2        0.3058
     50 H         138.0945  151.0021  152.1180 H       2  UNK2        0.2452
     51 C         137.8083  143.1278  163.2950 C.3     2  UNK2        0.1660
     52 O         136.9183  141.9337  163.1165 O.3     2  UNK2       -0.3798
     53 H         136.6128  141.8927  162.1968 H       2  UNK2        0.2105
     54 CB        143.7898  144.0125  164.5527 C.3     1  PHE1        0.0269
     55 CG2       144.4715  144.2632  165.3702 C.3     1  PHE1        0.0022
     56 CG1       144.2349  144.5609  163.2294 C.3     1  PHE1        0.0021
     57 CD1       144.5099  143.6299  162.0859 C.3     1  PHE1        0.0001
     58 CA        141.6454  140.5523  167.4561 C.3     1  PHE1        0.1485
     59 C         140.3670  139.2756  165.5892 C.2     1  PHE1        0.2406
     60 O         139.8175  140.5741  165.0774 O.2     1  PHE1       -0.2733
     61 N         141.2809  139.2646  166.7785 N.am    1  PHE1       -0.2970
     62 H         141.6415  138.4124  167.1143 H       1  PHE1        0.1499
     63 CA        140.0025  137.9879  164.9115 C.3     1  PHE1        0.1491
     64 C         141.8048  138.2868  163.0644 C.2     1  PHE1        0.2432
     65 O         142.6042  139.1601  163.9855 O.2     1  PHE1       -0.2732
     66 N         140.5040  137.7007  163.5274 N.am    1  PHE1       -0.2969
     67 H         139.9794  137.1275  162.9229 H       1  PHE1        0.1499
     68 CA        142.3064  137.9995  161.6802 C.3     1  PHE1        0.1782
     69 C         141.4621  138.8245  159.3657 C.2     1  PHE1        0.2407
     70 O         142.5522  139.8544  159.3351 O.2     1  PHE1       -0.2733
     71 N         141.3392  137.8970  160.5382 N.am    1  PHE1       -0.2950
     72 H         140.6237  137.2211  160.5583 H       1  PHE1        0.1499
     73 CA        140.4949  138.7220  158.2239 C.3     1  PHE1        0.1485
     74 N         140.6565  137.6386  157.1990 N.am    1  PHE1       -0.2972
     75 C         141.7679  137.7161  156.1947 C.2     1  PHE1        0.2374
     76 O         142.7178  138.8768  156.2152 O.2     1  PHE1       -0.2736
     77 H         140.0330  136.8768  157.1855 H       1  PHE1        0.1499
     78 CA        141.9295  136.6327  155.1698 C.3     1  PHE1        0.1359
     79 N         142.6775  136.9079  153.8991 N.3     1  PHE1       -0.2899
     80 C         142.0816  137.8086  152.8580 C.3     0  ACE0        0.0862
     81 H         142.8384  136.0059  153.4509 H       1  PHE1        0.1237
     82 CB        141.3430  135.2742  155.4157 C.3     1  PHE1        0.0514
     83 CG        142.1889  134.1890  156.0131 C.ar    1  PHE1       -0.0203
     84 CD1       143.2734  134.5354  156.9898 C.ar    1  PHE1       -0.0042
     85 CE1       144.1193  133.4503  157.5872 C.ar    1  PHE1       -0.0003
     86 CZ        143.8807  132.0188  157.2079 C.ar    1  PHE1       -0.0000
     87 CE2       142.7962  131.6724  156.2312 C.ar    1  PHE1       -0.0003
     88 CD2       141.9503  132.7575  155.6338 C.ar    1  PHE1       -0.0042
     89 CB        139.3661  139.7029  158.1068 C.3     1  PHE1        0.0269
     90 CG2       138.8305  139.8522  159.0485 C.3     1  PHE1        0.0022
     91 CD1       138.9940  141.8560  156.7014 C.3     1  PHE1        0.0001
     92 CG1       139.0779  140.3610  156.7902 C.3     1  PHE1        0.0021
     93 CB        143.7751  137.8147  161.4379 C.3     1  PHE1        0.1660
     94 O         144.7510  138.8445  161.9249 O.3     1  PHE1       -0.3798
     95 H         144.6106  139.6756  161.4448 H       1  PHE1        0.2105
     96 CB        139.1365  136.9875  165.6181 C.3     1  PHE1        0.0385
     97 CG        137.7385  137.3556  166.0180 C.3     1  PHE1        0.0870
     98 CD        137.4855  138.0119  167.3429 C.2     1  PHE1        0.2194
     99 NE2       136.3276  137.5719  168.1889 N.am    1  PHE1       -0.3288
    100 OE1       138.3903  139.1081  167.8217 O.2     1  PHE1       -0.2753
    101 HE21      135.7336  136.8524  167.8746 H       1  PHE1        0.1449
    102 HE22      136.1615  138.0027  169.0585 H       1  PHE1        0.1449
    103 CB        141.9864  140.5608  168.9168 C.3     1  PHE1        0.0269
    104 CG2       141.0825  139.8808  169.9020 C.3     1  PHE1        0.0022
    105 CG1       143.2314  141.2493  169.3923 C.3     1  PHE1        0.0021
    106 CD1       143.1517  142.6357  169.9593 C.3     1  PHE1        0.0001
@<TRIPOS>BOND
     1    91    92    1
     2    92    89    1
     3    89    90    1
     4    89    73    1
     5    73    74    1
     6    74    75   am
     7    75    76    2
     8    75    78    1
     9    78    82    1
    10    82    83    1
    11    83    84   ar
    12    84    85   ar
    13    85    86   ar
    14    86    87   ar
    15    87    88   ar
    16    78    79    1
    17    79    80    1
    18    73    69    1
    19    69    70    2
    20    69    71   am
    21    71    68    1
    22    68    93    1
    23    93    94    1
    24    68    64    1
    25    64    65    2
    26    64    66   am
    27    66    63    1
    28    63    96    1
    29    96    97    1
    30    97    98    1
    31    98    99   am
    32    98   100    2
    33    63    59    1
    34    59    60    2
    35    59    61   am
    36    58    61    1
    37    58     1    1
    38     1     2    2
    39     1     3   am
    40     5     3    1
    41     5     6    1
    42     6     7    2
    43     6     8   am
    44     8    10    1
    45    10    51    1
    46    51    52    1
    47    10    11    1
    48    11    12    2
    49    11    13   am
    50    15    13    1
    51    15    16    1
    52    16    17    2
    53    16    18   am
    54    18    19    1
    55    19    20    1
    56    19    21    1
    57    21    22    2
    58    21    23   am
    59    23    24    1
    60    24    41    1
    61    42    41    1
    62    42    43    1
    63    43    44    1
    64    44    45    1
    65    45    46    2
    66    45    47    1
    67    24    25    1
    68    25    26    2
    69    25    27   am
    70    28    27    1
    71    28    37    1
    72    37    38    1
    73    37    39    1
    74    39    40    1
    75    28    29    1
    76    29    30    2
    77    29    31    1
    78    31    32    1
    79    32    33    1
    80     5    54    1
    81    54    55    1
    82    54    56    1
    83    56    57    1
    84    58   103    1
    85   103   104    1
    86   103   105    1
    87   105   106    1
    88    88    83   ar
    89    32    15    1
    90    47    42    1
    91    74    77    1
    92    79    81    1
    93    71    72    1
    94    94    95    1
    95    66    67    1
    96    99   101    1
    97    99   102    1
    98    61    62    1
    99     3     4    1
   100     8     9    1
   101    52    53    1
   102    13    14    1
   103    18    34    1
   104    23    35    1
   105    44    48    1
   106    46    49    1
   107    47    50    1
   108    27    36    1
@<TRIPOS>MOLECULE
*****
 106 108 0 0 0
SMALL
GASTEIGER

@<TRIPOS>ATOM
      1 C         141.9507  141.5819  167.0827 C.2     1  PHE1        0.2406
      2 O         141.7242  142.8869  167.7868 O.2     1  PHE1       -0.2733
      3 N         142.4915  141.5686  165.6836 N.am    1  PHE1       -0.2970
      4 H         142.6402  140.7121  165.2215 H       1  PHE1        0.1499
      5 CA        142.8057  142.8603  164.9887 C.3     1  PHE1        0.1485
      6 C         141.6987  143.6845  164.4012 C.2     1  PHE1        0.2407
      7 O         141.9220  145.1378  164.1044 O.2     1  PHE1       -0.2733
      8 N         140.3683  143.0555  164.1105 N.am    2  UNK2       -0.2950
      9 H         140.2218  142.1016  164.3054 H       2  UNK2        0.1499
     10 C         139.2613  143.8797  163.5231 C.3     2  UNK2        0.1782
     11 C         139.2946  144.2543  162.0710 C.2     2  UNK2        0.2433
     12 O         138.1593  143.6649  161.2876 O.2     2  UNK2       -0.2732
     13 N         140.3916  145.1337  161.5483 N.am    2  UNK2       -0.2941
     14 H         141.0897  145.4651  162.1582 H       2  UNK2        0.1500
     15 C         140.4248  145.5083  160.0961 C.3     2  UNK2        0.1890
     16 C         139.5586  146.7305  160.0207 C.2     2  UNK2        0.2443
     17 O         139.1107  146.9410  161.4367 O.2     2  UNK2       -0.2732
     18 N         138.9067  147.8521  159.2676 N.am    2  UNK2       -0.2969
     19 C         138.6186  148.6159  158.0092 C.3     2  UNK2        0.1486
     20 C         137.7207  149.7288  158.4625 C.3     2  UNK2        0.0312
     21 C         138.7601  148.8471  156.5339 C.2     2  UNK2        0.2406
     22 O         137.9300  150.0706  156.2811 O.2     2  UNK2       -0.2733
     23 N         139.2989  148.4927  155.1797 N.am    2  UNK2       -0.2969
     24 C         140.1116  147.6339  154.2567 C.3     2  UNK2        0.1519
     25 C         141.0120  146.4674  153.9765 C.2     2  UNK2        0.2408
     26 O         141.2598  146.5518  152.4994 O.2     2  UNK2       -0.2733
     27 N         141.7938  145.2603  154.4031 N.am    2  UNK2       -0.2954
     28 C         142.2779  144.2895  155.4389 C.3     2  UNK2        0.1714
     29 C         142.3534  143.7770  156.8467 C.2     2  UNK2        0.3349
     30 O         143.2432  142.5738  156.7435 O.2     2  UNK2       -0.2483
     31 O         142.0030  143.8405  158.3038 O.3     2  UNK2       -0.4489
     32 C         141.3070  144.4653  159.4765 C.3     2  UNK2        0.1956
     33 C         141.7922  143.4933  160.5109 C.3     2  UNK2        0.0497
     34 H         138.4079  148.3426  159.9604 H       2  UNK2        0.1499
     35 H         138.9234  149.1844  154.5883 H       2  UNK2        0.1499
     36 H         142.2020  144.9366  153.5678 H       2  UNK2        0.1499
     37 C         143.1315  143.3316  154.6619 C.3     2  UNK2        0.0289
     38 C         144.5762  143.6480  154.4112 C.3     2  UNK2        0.0023
     39 C         142.5406  142.0574  154.1356 C.3     2  UNK2        0.0022
     40 C         142.2867  141.8993  152.6657 C.3     2  UNK2        0.0001
     41 C         139.9284  148.2767  152.9139 C.3     2  UNK2        0.0693
     42 C         140.2304  149.7347  152.7329 C.3     2  UNK2        0.1690
     43 C         141.5911  150.3649  152.7731 C.3     2  UNK2        0.2006
     44 N         141.4264  151.8383  152.5450 N.pl3   2  UNK2       -0.2224
     45 C         139.9641  152.1187  152.3638 C.cat   2  UNK2        0.3634
     46 N         139.3488  153.4632  152.1108 N.2     2  UNK2       -0.1334
     47 N         139.2249  150.8187  152.4799 N.pl3   2  UNK2       -0.2251
     48 H         142.1510  152.5043  152.5188 H       2  UNK2        0.2453
     49 H         139.9203  154.2626  152.0507 H       2  UNK2        0.3058
     50 H         138.2509  150.6980  152.4035 H       2  UNK2        0.2452
     51 C         138.1210  144.3293  164.3878 C.3     2  UNK2        0.1660
     52 O         138.3908  145.1188  165.6343 O.3     2  UNK2       -0.3798
     53 H         138.8685  144.5644  166.2710 H       2  UNK2        0.2105
     54 CB        144.2269  143.3276  164.8812 C.3     1  PHE1        0.0269
     55 CG2       144.7347  144.0455  165.5314 C.3     1  PHE1        0.0022
     56 CG1       145.1100  142.7985  163.7902 C.3     1  PHE1        0.0021
     57 CD1       144.7771  143.0772  162.3544 C.3     1  PHE1        0.0001
     58 CA        141.6365  140.2903  167.7776 C.3     1  PHE1        0.1485
     59 C         140.3657  139.2244  165.7780 C.2     1  PHE1        0.2406
     60 O         139.8552  140.5779  165.3810 O.2     1  PHE1       -0.2733
     61 N         141.2563  139.0806  166.9762 N.am    1  PHE1       -0.2970
     62 H         141.5913  138.1923  167.2368 H       1  PHE1        0.1499
     63 CA        139.9855  138.0148  164.9766 C.3     1  PHE1        0.1491
     64 C         141.9465  138.2055  163.2832 C.2     1  PHE1        0.2432
     65 O         142.8270  138.7573  164.3650 O.2     1  PHE1       -0.2732
     66 N         140.5257  137.8342  163.5890 N.am    1  PHE1       -0.2969
     67 H         139.9479  137.4720  162.8790 H       1  PHE1        0.1499
     68 CA        142.4868  138.0249  161.8956 C.3     1  PHE1        0.1782
     69 C         141.5673  139.1717  159.7532 C.2     1  PHE1        0.2407
     70 O         142.5144  140.3165  159.9595 O.2     1  PHE1       -0.2733
     71 N         141.5535  138.0259  160.7213 N.am    1  PHE1       -0.2950
     72 H         140.9319  137.2746  160.5859 H       1  PHE1        0.1499
     73 CA        140.6340  139.1726  158.5790 C.3     1  PHE1        0.1485
     74 N         140.5593  137.9747  157.6794 N.am    1  PHE1       -0.2972
     75 C         141.7085  137.6439  156.7739 C.2     1  PHE1        0.2374
     76 O         142.9325  138.5110  156.7681 O.2     1  PHE1       -0.2736
     77 H         139.7559  137.4056  157.6832 H       1  PHE1        0.1499
     78 CA        141.6338  136.4460  155.8742 C.3     1  PHE1        0.1359
     79 N         142.1763  135.1260  156.3362 N.3     1  PHE1       -0.2899
     80 C         141.7696  133.8622  155.6380 C.3     0  ACE0        0.0862
     81 H         141.9055  135.0224  157.3141 H       1  PHE1        0.1237
     82 CB        141.0165  136.5680  154.5125 C.3     1  PHE1        0.0514
     83 CG        139.9392  137.5821  154.2656 C.ar    1  PHE1       -0.0203
     84 CD1       140.2709  138.8792  153.5891 C.ar    1  PHE1       -0.0042
     85 CE1       139.1936  139.8932  153.3422 C.ar    1  PHE1       -0.0003
     86 CZ        137.7845  139.6102  153.7717 C.ar    1  PHE1       -0.0000
     87 CE2       137.4528  138.3131  154.4482 C.ar    1  PHE1       -0.0003
     88 CD2       138.5301  137.2991  154.6951 C.ar    1  PHE1       -0.0042
     89 CB        139.7754  140.3716  158.3045 C.3     1  PHE1        0.0269
     90 CG2       139.9064  140.7685  157.2939 C.3     1  PHE1        0.0022
     91 CD1       137.8943  139.9781  160.0528 C.3     1  PHE1        0.0001
     92 CG1       138.8615  140.8995  159.3702 C.3     1  PHE1        0.0021
     93 CB        143.9605  137.8434  161.6822 C.3     1  PHE1        0.1660
     94 O         144.6693  138.6397  160.6270 O.3     1  PHE1       -0.3798
     95 H         144.3449  138.3771  159.7513 H       1  PHE1        0.2105
     96 CB        139.0650  136.9857  165.5628 C.3     1  PHE1        0.0385
     97 CG        137.6734  137.3693  165.9704 C.3     1  PHE1        0.0870
     98 CD        137.4221  137.9421  167.3338 C.2     1  PHE1        0.2194
     99 NE2       136.3081  137.4017  168.1806 N.am    1  PHE1       -0.3288
    100 OE1       138.2847  139.0550  167.8503 O.2     1  PHE1       -0.2753
    101 HE21      135.7419  136.6712  167.8416 H       1  PHE1        0.1449
    102 HE22      136.1432  137.7776  169.0755 H       1  PHE1        0.1449
    103 CB        141.7024  140.2083  169.2739 C.3     1  PHE1        0.0269
    104 CG2       143.0319  140.1126  169.9620 C.3     1  PHE1        0.0022
    105 CG1       140.4389  140.2220  170.0823 C.3     1  PHE1        0.0021
    106 CD1       139.5135  141.4002  170.0074 C.3     1  PHE1        0.0001
@<TRIPOS>BOND
     1    91    92    1
     2    92    89    1
     3    89    90    1
     4    89    73    1
     5    73    74    1
     6    74    75   am
     7    75    76    2
     8    75    78    1
     9    78    82    1
    10    82    83    1
    11    83    84   ar
    12    84    85   ar
    13    85    86   ar
    14    86    87   ar
    15    87    88   ar
    16    78    79    1
    17    79    80    1
    18    73    69    1
    19    69    70    2
    20    69    71   am
    21    71    68    1
    22    68    93    1
    23    93    94    1
    24    68    64    1
    25    64    65    2
    26    64    66   am
    27    66    63    1
    28    63    96    1
    29    96    97    1
    30    97    98    1
    31    98    99   am
    32    98   100    2
    33    63    59    1
    34    59    60    2
    35    59    61   am
    36    58    61    1
    37    58     1    1
    38     1     2    2
    39     1     3   am
    40     5     3    1
    41     5     6    1
    42     6     7    2
    43     6     8   am
    44     8    10    1
    45    10    51    1
    46    51    52    1
    47    10    11    1
    48    11    12    2
    49    11    13   am
    50    15    13    1
    51    15    16    1
    52    16    17    2
    53    16    18   am
    54    18    19    1
    55    19    20    1
    56    19    21    1
    57    21    22    2
    58    21    23   am
    59    23    24    1
    60    24    41    1
    61    42    41    1
    62    42    43    1
    63    43    44    1
    64    44    45    1
    65    45    46    2
    66    45    47    1
    67    24    25    1
    68    25    26    2
    69    25    27   am
    70    28    27    1
    71    28    37    1
    72    37    38    1
    73    37    39    1
    74    39    40    1
    75    28    29    1
    76    29    30    2
    77    29    31    1
    78    31    32    1
    79    32    33    1
    80     5    54    1
    81    54    55    1
    82    54    56    1
    83    56    57    1
    84    58   103    1
    85   103   104    1
    86   103   105    1
    87   105   106    1
    88    88    83   ar
    89    32    15    1
    90    47    42    1
    91    74    77    1
    92    79    81    1
    93    71    72    1
    94    94    95    1
    95    66    67    1
    96    99   101    1
    97    99   102    1
    98    61    62    1
    99     3     4    1
   100     8     9    1
   101    52    53    1
   102    13    14    1
   103    18    34    1
   104    23    35    1
   105    44    48    1
   106    46    49    1
   107    47    50    1
   108    27    36    1
@<TRIPOS>MOLECULE
*****
 106 108 0 0 0
SMALL
GASTEIGER

@<TRIPOS>ATOM
      1 C         140.6430  143.1067  167.1239 C.2     1  PHE1        0.2406
      2 O         139.5714  144.1278  166.8807 O.2     1  PHE1       -0.2733
      3 N         141.7410  142.9180  166.1194 N.am    1  PHE1       -0.2970
      4 H         142.4443  142.2479  166.2789 H       1  PHE1        0.1499
      5 CA        141.7673  143.7504  164.8718 C.3     1  PHE1        0.1485
      6 C         140.5506  143.8309  163.9981 C.2     1  PHE1        0.2407
      7 O         139.7454  145.0955  163.9483 O.2     1  PHE1       -0.2733
      8 N         140.1391  142.6469  163.1743 N.am    2  UNK2       -0.2950
      9 H         140.6676  141.8168  163.2070 H       2  UNK2        0.1499
     10 C         138.9224  142.7274  162.3006 C.3     2  UNK2        0.1782
     11 C         139.0129  143.3647  160.9459 C.2     2  UNK2        0.2433
     12 O         137.9268  142.9161  160.0135 O.2     2  UNK2       -0.2732
     13 N         140.1131  144.3397  160.6476 N.am    2  UNK2       -0.2941
     14 H         140.7758  144.5614  161.3410 H       2  UNK2        0.1500
     15 C         140.2035  144.9771  159.2927 C.3     2  UNK2        0.1890
     16 C         139.4394  146.2586  159.4472 C.2     2  UNK2        0.2443
     17 O         138.9833  146.2347  160.8759 O.2     2  UNK2       -0.2732
     18 N         138.8936  147.5517  158.9178 N.am    2  UNK2       -0.2969
     19 C         138.6913  148.5599  157.8257 C.3     2  UNK2        0.1486
     20 C         137.8770  149.6374  158.4785 C.3     2  UNK2        0.0312
     21 C         138.8785  149.0525  156.4214 C.2     2  UNK2        0.2406
     22 O         138.1540  150.3657  156.4019 O.2     2  UNK2       -0.2733
     23 N         139.4126  148.9165  155.0263 N.am    2  UNK2       -0.2969
     24 C         140.1711  148.1831  153.9602 C.3     2  UNK2        0.1519
     25 C         140.9803  147.0202  153.4672 C.2     2  UNK2        0.2408
     26 O         141.2618  147.3608  152.0336 O.2     2  UNK2       -0.2733
     27 N         141.6548  145.6944  153.6602 N.am    2  UNK2       -0.2954
     28 C         142.0401  144.5094  154.4951 C.3     2  UNK2        0.1714
     29 C         142.0479  143.7365  155.7807 C.2     2  UNK2        0.3349
     30 O         142.8403  142.5053  155.4546 O.2     2  UNK2       -0.2483
     31 O         141.6764  143.5529  157.2223 O.3     2  UNK2       -0.4489
     32 C         141.0108  144.0006  158.4898 C.3     2  UNK2        0.1956
     33 C         141.3971  142.8147  159.3231 C.3     2  UNK2        0.0497
     34 H         138.4228  147.9422  159.6892 H       2  UNK2        0.1499
     35 H         139.1048  149.7357  154.5753 H       2  UNK2        0.1499
     36 H         142.0514  145.5014  152.7801 H       2  UNK2        0.1499
     37 C         142.8288  143.6481  153.5537 C.3     2  UNK2        0.0289
     38 C         142.1460  142.5542  152.7874 C.3     2  UNK2        0.0023
     39 C         144.3002  143.8808  153.3785 C.3     2  UNK2        0.0022
     40 C         145.1712  142.7916  152.8262 C.3     2  UNK2        0.0001
     41 C         140.0652  149.0802  152.7627 C.3     2  UNK2        0.0693
     42 C         140.1527  150.5681  152.9302 C.3     2  UNK2        0.1690
     43 C         139.1144  151.5654  152.5092 C.3     2  UNK2        0.2006
     44 N         139.6139  152.9338  152.8670 N.pl3   2  UNK2       -0.2224
     45 C         140.9610  152.7822  153.5092 C.cat   2  UNK2        0.3634
     46 N         141.8237  153.8970  154.0222 N.2     2  UNK2       -0.1334
     47 N         141.2940  151.3202  153.5482 N.pl3   2  UNK2       -0.2251
     48 H         139.1407  153.7824  152.7083 H       2  UNK2        0.2453
     49 H         141.5165  154.8297  153.9513 H       2  UNK2        0.3058
     50 H         142.1171  150.9238  153.9151 H       2  UNK2        0.2452
     51 C         137.6154  142.1705  162.7819 C.3     2  UNK2        0.1660
     52 O         137.0630  140.9175  162.1699 O.3     2  UNK2       -0.3798
     53 H         136.8365  141.0838  161.2415 H       2  UNK2        0.2105
     54 CB        143.0102  144.5021  164.4978 C.3     1  PHE1        0.0269
     55 CG2       143.0759  145.3928  163.8668 C.3     1  PHE1        0.0022
     56 CG1       144.3452  144.0438  165.0055 C.3     1  PHE1        0.0021
     57 CD1       145.0244  142.8659  164.3721 C.3     1  PHE1        0.0001
     58 CA        140.6167  142.2744  168.3715 C.3     1  PHE1        0.1485
     59 C         142.3543  140.4985  169.1309 C.2     1  PHE1        0.2406
     60 O         143.0631  141.5401  169.9450 O.2     1  PHE1       -0.2733
     61 N         141.1311  140.8656  168.3442 N.am    1  PHE1       -0.2970
     62 H         140.6659  140.1819  167.8099 H       1  PHE1        0.1499
     63 CA        142.8686  139.0897  169.1036 C.3     1  PHE1        0.1491
     64 C         143.4160  139.2615  166.5697 C.2     1  PHE1        0.2432
     65 O         143.3556  140.7577  166.6581 O.2     1  PHE1       -0.2732
     66 N         143.1726  138.4275  167.7925 N.am    1  PHE1       -0.2969
     67 H         143.2123  137.4455  167.7345 H       1  PHE1        0.1499
     68 CA        143.7200  138.5993  165.2586 C.3     1  PHE1        0.1782
     69 C         141.8489  139.2332  163.5712 C.2     1  PHE1        0.2407
     70 O         142.2162  140.6811  163.7077 O.2     1  PHE1       -0.2733
     71 N         142.6007  138.1923  164.3466 N.am    1  PHE1       -0.2950
     72 H         142.3596  137.2420  164.2570 H       1  PHE1        0.1499
     73 CA        140.7297  138.8262  162.6593 C.3     1  PHE1        0.1485
     74 N         140.8961  138.9353  161.1726 N.am    1  PHE1       -0.2972
     75 C         142.0925  138.3246  160.5050 C.2     1  PHE1        0.2374
     76 O         143.1225  137.6048  161.3242 O.2     1  PHE1       -0.2736
     77 H         140.2201  139.4077  160.6349 H       1  PHE1        0.1499
     78 CA        142.2590  138.4337  159.0183 C.3     1  PHE1        0.1359
     79 N         143.5625  138.9014  158.4418 N.3     1  PHE1       -0.2899
     80 C         143.8876  140.3655  158.4133 C.3     0  ACE0        0.0862
     81 H         143.5915  138.5745  157.4761 H       1  PHE1        0.1237
     82 CB        141.1220  138.0750  158.1080 C.3     1  PHE1        0.0514
     83 CG        140.3203  139.1570  157.4471 C.ar    1  PHE1       -0.0203
     84 CD1       140.7272  139.6751  156.0995 C.ar    1  PHE1       -0.0042
     85 CE1       139.9256  140.7570  155.4387 C.ar    1  PHE1       -0.0003
     86 CZ        138.7171  141.3208  156.1255 C.ar    1  PHE1       -0.0000
     87 CE2       138.3103  140.8027  157.4731 C.ar    1  PHE1       -0.0003
     88 CD2       139.1119  139.7208  158.1339 C.ar    1  PHE1       -0.0042
     89 CB        139.4439  138.3100  163.2342 C.3     1  PHE1        0.0269
     90 CG2       138.8515  137.7406  162.5127 C.3     1  PHE1        0.0022
     91 CD1       138.5873  137.4956  165.5478 C.3     1  PHE1        0.0001
     92 CG1       139.0930  138.5970  164.6640 C.3     1  PHE1        0.0021
     93 CB        145.1432  138.3441  164.8593 C.3     1  PHE1        0.1660
     94 O         145.8884  139.3617  164.0473 O.3     1  PHE1       -0.3798
     95 H         145.4837  139.4335  163.1686 H       1  PHE1        0.2105
     96 CB        143.0791  138.3430  170.3875 C.3     1  PHE1        0.0385
     97 CG        143.7137  136.9840  170.3695 C.3     1  PHE1        0.0870
     98 CD        144.6982  136.6018  171.4346 C.2     1  PHE1        0.2194
     99 NE2       145.6090  137.6393  172.0213 N.am    1  PHE1       -0.3288
    100 OE1       144.7720  135.1821  171.9131 O.2     1  PHE1       -0.2753
    101 HE21      145.5606  138.5711  171.7072 H       1  PHE1        0.1449
    102 HE22      146.2552  137.3884  172.7204 H       1  PHE1        0.1449
    103 CB        140.0761  142.8508  169.6464 C.3     1  PHE1        0.0269
    104 CG2       140.5360  144.1999  170.1139 C.3     1  PHE1        0.0022
    105 CG1       139.0754  142.0783  170.4538 C.3     1  PHE1        0.0021
    106 CD1       138.8324  140.6279  170.1581 C.3     1  PHE1        0.0001
@<TRIPOS>BOND
     1    91    92    1
     2    92    89    1
     3    89    90    1
     4    89    73    1
     5    73    74    1
     6    74    75   am
     7    75    76    2
     8    75    78    1
     9    78    82    1
    10    82    83    1
    11    83    84   ar
    12    84    85   ar
    13    85    86   ar
    14    86    87   ar
    15    87    88   ar
    16    78    79    1
    17    79    80    1
    18    73    69    1
    19    69    70    2
    20    69    71   am
    21    71    68    1
    22    68    93    1
    23    93    94    1
    24    68    64    1
    25    64    65    2
    26    64    66   am
    27    66    63    1
    28    63    96    1
    29    96    97    1
    30    97    98    1
    31    98    99   am
    32    98   100    2
    33    63    59    1
    34    59    60    2
    35    59    61   am
    36    58    61    1
    37    58     1    1
    38     1     2    2
    39     1     3   am
    40     5     3    1
    41     5     6    1
    42     6     7    2
    43     6     8   am
    44     8    10    1
    45    10    51    1
    46    51    52    1
    47    10    11    1
    48    11    12    2
    49    11    13   am
    50    15    13    1
    51    15    16    1
    52    16    17    2
    53    16    18   am
    54    18    19    1
    55    19    20    1
    56    19    21    1
    57    21    22    2
    58    21    23   am
    59    23    24    1
    60    24    41    1
    61    42    41    1
    62    42    43    1
    63    43    44    1
    64    44    45    1
    65    45    46    2
    66    45    47    1
    67    24    25    1
    68    25    26    2
    69    25    27   am
    70    28    27    1
    71    28    37    1
    72    37    38    1
    73    37    39    1
    74    39    40    1
    75    28    29    1
    76    29    30    2
    77    29    31    1
    78    31    32    1
    79    32    33    1
    80     5    54    1
    81    54    55    1
    82    54    56    1
    83    56    57    1
    84    58   103    1
    85   103   104    1
    86   103   105    1
    87   105   106    1
    88    88    83   ar
    89    32    15    1
    90    47    42    1
    91    74    77    1
    92    79    81    1
    93    71    72    1
    94    94    95    1
    95    66    67    1
    96    99   101    1
    97    99   102    1
    98    61    62    1
    99     3     4    1
   100     8     9    1
   101    52    53    1
   102    13    14    1
   103    18    34    1
   104    23    35    1
   105    44    48    1
   106    46    49    1
   107    47    50    1
   108    27    36    1
@<TRIPOS>MOLECULE
*****
 106 108 0 0 0
SMALL
GASTEIGER

@<TRIPOS>ATOM
      1 C         141.8974  142.4936  167.7660 C.2     1  PHE1        0.2406
      2 O         143.3701  142.6480  168.0053 O.2     1  PHE1       -0.2733
      3 N         141.3861  142.2317  166.3804 N.am    1  PHE1       -0.2970
      4 H         140.4195  142.1303  166.2233 H       1  PHE1        0.1499
      5 CA        142.3475  142.1243  165.2340 C.3     1  PHE1        0.1485
      6 C         142.2709  143.0997  164.0970 C.2     1  PHE1        0.2407
      7 O         143.0378  144.3873  164.1605 O.2     1  PHE1       -0.2733
      8 N         141.4275  142.7875  162.8965 N.am    2  UNK2       -0.2950
      9 H         140.9242  141.9425  162.8548 H       2  UNK2        0.1499
     10 C         141.3509  143.7630  161.7595 C.3     2  UNK2        0.1782
     11 C         142.0034  143.4391  160.4484 C.2     2  UNK2        0.2433
     12 O         141.8870  144.5488  159.4459 O.2     2  UNK2       -0.2732
     13 N         142.6792  142.1141  160.2539 N.am    2  UNK2       -0.2941
     14 H         142.6944  141.4570  160.9869 H       2  UNK2        0.1500
     15 C         143.3317  141.7903  158.9427 C.3     2  UNK2        0.1890
     16 C         144.6642  142.4739  159.0263 C.2     2  UNK2        0.2443
     17 O         144.6495  143.1249  160.3775 O.2     2  UNK2       -0.2732
     18 N         146.0038  142.8460  158.4632 N.am    2  UNK2       -0.2969
     19 C         147.0435  142.8211  157.3823 C.3     2  UNK2        0.1486
     20 C         148.1676  143.6384  157.9467 C.3     2  UNK2        0.0312
     21 C         147.5453  142.4052  156.0313 C.2     2  UNK2        0.2406
     22 O         148.9095  143.0233  155.9491 O.2     2  UNK2       -0.2733
     23 N         147.3941  141.6934  154.7197 N.am    2  UNK2       -0.2969
     24 C         146.6246  140.8488  153.7479 C.3     2  UNK2        0.1519
     25 C         145.4130  140.0648  153.3385 C.2     2  UNK2        0.2408
     26 O         145.7566  139.5628  151.9674 O.2     2  UNK2       -0.2733
     27 N         144.0369  139.5212  153.5855 N.am    2  UNK2       -0.2954
     28 C         142.8117  139.3424  154.4320 C.3     2  UNK2        0.1714
     29 C         142.0178  139.5693  155.6843 C.2     2  UNK2        0.3349
     30 O         140.7364  138.8301  155.4360 O.2     2  UNK2       -0.2483
     31 O         141.8373  140.1501  157.0555 O.3     2  UNK2       -0.4489
     32 C         142.3115  140.9516  158.2314 C.3     2  UNK2        0.1956
     33 C         141.0853  140.7716  159.0765 C.3     2  UNK2        0.0497
     34 H         146.4150  143.3901  159.1732 H       2  UNK2        0.1499
     35 H         148.2420  141.8755  154.2536 H       2  UNK2        0.1499
     36 H         143.8302  139.0209  152.7631 H       2  UNK2        0.1499
     37 C         141.9102  138.4945  153.5842 C.3     2  UNK2        0.0289
     38 C         140.8377  139.1368  152.7552 C.3     2  UNK2        0.0023
     39 C         142.0813  137.0045  153.5655 C.3     2  UNK2        0.0022
     40 C         141.7232  136.2239  152.3356 C.3     2  UNK2        0.0001
     41 C         147.5481  140.7219  152.5727 C.3     2  UNK2        0.0693
     42 C         148.8267  141.5052  152.5357 C.3     2  UNK2        0.1690
     43 C         148.9816  142.9182  152.0566 C.3     2  UNK2        0.2006
     44 N         150.4256  143.2994  152.1962 N.pl3   2  UNK2       -0.2224
     45 C         151.1633  142.1220  152.7615 C.cat   2  UNK2        0.3634
     46 N         152.6313  142.0636  153.0639 N.2     2  UNK2       -0.1334
     47 N         150.1751  141.0132  152.9714 N.pl3   2  UNK2       -0.2251
     48 H         150.8200  144.1695  151.9584 H       2  UNK2        0.2453
     49 H         153.2011  142.8476  152.8908 H       2  UNK2        0.3058
     50 H         150.3762  140.1193  153.3318 H       2  UNK2        0.2452
     51 C         140.6218  145.0622  161.9339 C.3     2  UNK2        0.1660
     52 O         140.3440  145.5875  163.3111 O.3     2  UNK2       -0.3798
     53 H         139.7269  144.9929  163.7656 H       2  UNK2        0.2105
     54 CB        143.3855  141.0416  165.2246 C.3     1  PHE1        0.0269
     55 CG2       143.3211  140.0639  165.7103 C.3     1  PHE1        0.0022
     56 CG1       144.6777  141.2477  164.4914 C.3     1  PHE1        0.0021
     57 CD1       145.5828  140.0817  164.2243 C.3     1  PHE1        0.0001
     58 CA        140.9359  142.6010  168.9124 C.3     1  PHE1        0.1485
     59 C         139.5836  140.4845  169.5768 C.2     1  PHE1        0.2406
     60 O         140.7900  139.9338  170.2778 O.2     1  PHE1       -0.2733
     61 N         139.6566  141.8180  168.8941 N.am    1  PHE1       -0.2970
     62 H         138.8648  142.1795  168.4341 H       1  PHE1        0.1499
     63 CA        138.3043  139.7015  169.5586 C.3     1  PHE1        0.1491
     64 C         138.8048  138.9374  167.1264 C.2     1  PHE1        0.2432
     65 O         140.1162  139.6644  167.1679 O.2     1  PHE1       -0.2732
     66 N         137.8988  138.9560  168.3218 N.am    1  PHE1       -0.2969
     67 H         137.0381  138.4789  168.2946 H       1  PHE1        0.1499
     68 CA        138.3993  138.1919  165.8896 C.3     1  PHE1        0.1782
     69 C         140.2265  138.4053  164.0550 C.2     1  PHE1        0.2407
     70 O         141.1826  137.6359  164.9176 O.2     1  PHE1       -0.2733
     71 N         138.8349  138.6833  164.5410 N.am    1  PHE1       -0.2950
     72 H         138.2075  139.1883  163.9748 H       1  PHE1        0.1499
     73 CA        140.6621  138.8967  162.7064 C.3     1  PHE1        0.1485
     74 N         139.9827  140.0804  162.0841 N.am    1  PHE1       -0.2972
     75 C         138.6669  139.9079  161.3848 C.2     1  PHE1        0.2374
     76 O         138.0306  138.5518  161.3077 O.2     1  PHE1       -0.2736
     77 H         140.4003  140.9705  162.1347 H       1  PHE1        0.1499
     78 CA        137.9875  141.0917  160.7624 C.3     1  PHE1        0.1359
     79 N         138.0262  142.4250  161.4485 N.3     1  PHE1       -0.2899
     80 C         137.5629  142.5510  162.8696 C.3     0  ACE0        0.0862
     81 H         137.4504  143.0584  160.8938 H       1  PHE1        0.1237
     82 CB        137.2694  140.9420  159.4540 C.3     1  PHE1        0.0514
     83 CG        137.8840  141.4788  158.1954 C.ar    1  PHE1       -0.0203
     84 CD1       138.4086  142.8836  158.1569 C.ar    1  PHE1       -0.0042
     85 CE1       139.0233  143.4203  156.8984 C.ar    1  PHE1       -0.0003
     86 CZ        139.1133  142.5524  155.6783 C.ar    1  PHE1       -0.0000
     87 CE2       138.5887  141.1476  155.7168 C.ar    1  PHE1       -0.0003
     88 CD2       137.9741  140.6108  156.9754 C.ar    1  PHE1       -0.0042
     89 CB        141.7771  138.2044  161.9801 C.3     1  PHE1        0.0269
     90 CG2       141.4279  137.3941  161.3341 C.3     1  PHE1        0.0022
     91 CD1       144.1156  138.7825  161.0070 C.3     1  PHE1        0.0001
     92 CG1       143.1949  138.6494  162.1837 C.3     1  PHE1        0.0021
     93 CB        137.5582  136.9549  166.0014 C.3     1  PHE1        0.1660
     94 O         137.1755  136.4277  167.3526 O.3     1  PHE1       -0.3798
     95 H         137.9707  136.1260  167.8190 H       1  PHE1        0.2105
     96 CB        137.4304  139.6642  170.7772 C.3     1  PHE1        0.0385
     97 CG        136.2440  138.7475  170.8216 C.3     1  PHE1        0.0870
     98 CD        136.0719  137.7985  171.9704 C.2     1  PHE1        0.2194
     99 NE2       134.9846  138.0294  172.9776 N.am    1  PHE1       -0.3288
    100 OE1       136.9871  136.6186  172.1120 O.2     1  PHE1       -0.2753
    101 HE21      134.3839  138.8039  172.8847 H       1  PHE1        0.1449
    102 HE22      134.8717  137.4066  173.7316 H       1  PHE1        0.1449
    103 CB        141.2538  143.4913  170.0770 C.3     1  PHE1        0.0269
    104 CG2       140.4765  144.7567  170.2878 C.3     1  PHE1        0.0022
    105 CG1       142.3491  143.1161  171.0308 C.3     1  PHE1        0.0021
    106 CD1       143.7314  143.6661  170.8394 C.3     1  PHE1        0.0001
@<TRIPOS>BOND
     1    91    92    1
     2    92    89    1
     3    89    90    1
     4    89    73    1
     5    73    74    1
     6    74    75   am
     7    75    76    2
     8    75    78    1
     9    78    82    1
    10    82    83    1
    11    83    84   ar
    12    84    85   ar
    13    85    86   ar
    14    86    87   ar
    15    87    88   ar
    16    78    79    1
    17    79    80    1
    18    73    69    1
    19    69    70    2
    20    69    71   am
    21    71    68    1
    22    68    93    1
    23    93    94    1
    24    68    64    1
    25    64    65    2
    26    64    66   am
    27    66    63    1
    28    63    96    1
    29    96    97    1
    30    97    98    1
    31    98    99   am
    32    98   100    2
    33    63    59    1
    34    59    60    2
    35    59    61   am
    36    58    61    1
    37    58     1    1
    38     1     2    2
    39     1     3   am
    40     5     3    1
    41     5     6    1
    42     6     7    2
    43     6     8   am
    44     8    10    1
    45    10    51    1
    46    51    52    1
    47    10    11    1
    48    11    12    2
    49    11    13   am
    50    15    13    1
    51    15    16    1
    52    16    17    2
    53    16    18   am
    54    18    19    1
    55    19    20    1
    56    19    21    1
    57    21    22    2
    58    21    23   am
    59    23    24    1
    60    24    41    1
    61    42    41    1
    62    42    43    1
    63    43    44    1
    64    44    45    1
    65    45    46    2
    66    45    47    1
    67    24    25    1
    68    25    26    2
    69    25    27   am
    70    28    27    1
    71    28    37    1
    72    37    38    1
    73    37    39    1
    74    39    40    1
    75    28    29    1
    76    29    30    2
    77    29    31    1
    78    31    32    1
    79    32    33    1
    80     5    54    1
    81    54    55    1
    82    54    56    1
    83    56    57    1
    84    58   103    1
    85   103   104    1
    86   103   105    1
    87   105   106    1
    88    88    83   ar
    89    32    15    1
    90    47    42    1
    91    74    77    1
    92    79    81    1
    93    71    72    1
    94    94    95    1
    95    66    67    1
    96    99   101    1
    97    99   102    1
    98    61    62    1
    99     3     4    1
   100     8     9    1
   101    52    53    1
   102    13    14    1
   103    18    34    1
   104    23    35    1
   105    44    48    1
   106    46    49    1
   107    47    50    1
   108    27    36    1
@<TRIPOS>MOLECULE
*****
 106 108 0 0 0
SMALL
GASTEIGER

@<TRIPOS>ATOM
      1 C         142.5027  142.2125  167.7485 C.2     1  PHE1        0.2406
      2 O         143.8656  142.8361  167.8114 O.2     1  PHE1       -0.2733
      3 N         142.0737  141.4701  166.5178 N.am    1  PHE1       -0.2970
      4 H         141.1793  141.0608  166.4765 H       1  PHE1        0.1499
      5 CA        143.0075  141.3512  165.3499 C.3     1  PHE1        0.1485
      6 C         143.1295  142.4796  164.3692 C.2     1  PHE1        0.2407
      7 O         144.4287  143.2166  164.2316 O.2     1  PHE1       -0.2733
      8 N         141.9522  142.8710  163.5260 N.am    2  UNK2       -0.2950
      9 H         141.0995  142.3873  163.6163 H       2  UNK2        0.1499
     10 C         142.0742  143.9995  162.5453 C.3     2  UNK2        0.1782
     11 C         142.5028  143.7240  161.1346 C.2     2  UNK2        0.2433
     12 O         142.1870  144.8502  160.1956 O.2     2  UNK2       -0.2732
     13 N         143.1719  142.4253  160.7940 N.am    2  UNK2       -0.2941
     14 H         143.3297  141.7538  161.4965 H       2  UNK2        0.1500
     15 C         143.6005  142.1498  159.3832 C.3     2  UNK2        0.1890
     16 C         145.0317  142.5977  159.3490 C.2     2  UNK2        0.2443
     17 O         145.2881  143.0875  160.7433 O.2     2  UNK2       -0.2732
     18 N         146.3402  142.8110  158.6473 N.am    2  UNK2       -0.2969
     19 C         147.2262  142.7411  157.4389 C.3     2  UNK2        0.1486
     20 C         148.5329  143.2995  157.9192 C.3     2  UNK2        0.0312
     21 C         147.4869  142.4038  156.0008 C.2     2  UNK2        0.2406
     22 O         148.9182  142.8009  155.7926 O.2     2  UNK2       -0.2733
     23 N         147.0623  141.8766  154.6622 N.am    2  UNK2       -0.2969
     24 C         146.0499  141.2800  153.7300 C.3     2  UNK2        0.1519
     25 C         144.6815  140.7509  153.4175 C.2     2  UNK2        0.2408
     26 O         144.7702  140.3568  151.9729 O.2     2  UNK2       -0.2733
     27 N         143.2706  140.4104  153.7965 N.am    2  UNK2       -0.2954
     28 C         142.1406  140.3365  154.7800 C.3     2  UNK2        0.1714
     29 C         141.5501  140.5462  156.1429 C.2     2  UNK2        0.3349
     30 O         140.1400  140.0542  156.0028 O.2     2  UNK2       -0.2483
     31 O         141.6346  140.9914  157.5728 O.3     2  UNK2       -0.4489
     32 C         142.3745  141.5702  158.7422 C.3     2  UNK2        0.1956
     33 C         141.2432  141.4955  159.7243 C.3     2  UNK2        0.0497
     34 H         146.9196  143.1996  159.3421 H       2  UNK2        0.1499
     35 H         147.8685  141.9715  154.1051 H       2  UNK2        0.1499
     36 H         142.8857  140.0448  152.9674 H       2  UNK2        0.1499
     37 C         141.0132  139.7441  153.9876 C.3     2  UNK2        0.0289
     38 C         139.9709  140.6375  153.3829 C.3     2  UNK2        0.0023
     39 C         140.9280  138.2584  153.7998 C.3     2  UNK2        0.0022
     40 C         141.6142  137.6091  152.6347 C.3     2  UNK2        0.0001
     41 C         146.7936  141.1392  152.4349 C.3     2  UNK2        0.0693
     42 C         148.1948  141.6604  152.3142 C.3     2  UNK2        0.1690
     43 C         148.5857  143.0712  151.9871 C.3     2  UNK2        0.2006
     44 N         150.0837  143.1451  151.9702 N.pl3   2  UNK2       -0.2224
     45 C         150.6188  141.7800  152.2868 C.cat   2  UNK2        0.3634
     46 N         152.0670  141.3993  152.3753 N.2     2  UNK2       -0.1334
     47 N         149.4514  140.8624  152.4995 N.pl3   2  UNK2       -0.2251
     48 H         150.6214  143.9485  151.7840 H       2  UNK2        0.2453
     49 H         152.7644  142.0762  152.2184 H       2  UNK2        0.3058
     50 H         149.5012  139.9046  152.7216 H       2  UNK2        0.2452
     51 C         141.7674  145.4034  162.9755 C.3     2  UNK2        0.1660
     52 O         140.4387  146.0157  162.6451 O.3     2  UNK2       -0.3798
     53 H         140.3607  146.1199  161.6839 H       2  UNK2        0.2105
     54 CB        143.8194  140.1039  165.1628 C.3     1  PHE1        0.0269
     55 CG2       143.8272  139.2207  165.8076 C.3     1  PHE1        0.0022
     56 CG1       144.7436  139.9798  163.9879 C.3     1  PHE1        0.0021
     57 CD1       144.2547  139.3632  162.7109 C.3     1  PHE1        0.0001
     58 CA        141.5689  142.3314  168.9164 C.3     1  PHE1        0.1485
     59 C         139.9100  140.4634  169.6291 C.2     1  PHE1        0.2406
     60 O         140.9801  139.8343  170.4712 O.2     1  PHE1       -0.2733
     61 N         140.2043  141.7119  168.8517 N.am    1  PHE1       -0.2970
     62 H         139.5020  142.1247  168.2990 H       1  PHE1        0.1499
     63 CA        138.5454  139.8438  169.5644 C.3     1  PHE1        0.1491
     64 C         138.8887  139.1832  167.0753 C.2     1  PHE1        0.2432
     65 O         140.3684  139.3752  167.2284 O.2     1  PHE1       -0.2732
     66 N         137.9772  139.4176  168.2433 N.am    1  PHE1       -0.2969
     67 H         137.0059  139.2916  168.1428 H       1  PHE1        0.1499
     68 CA        138.3204  138.7569  165.7541 C.3     1  PHE1        0.1782
     69 C         138.9860  140.5009  163.9470 C.2     1  PHE1        0.2407
     70 O         140.4342  140.1814  164.1721 O.2     1  PHE1       -0.2733
     71 N         137.9291  139.7886  164.7380 N.am    1  PHE1       -0.2950
     72 H         136.9786  139.9983  164.5903 H       1  PHE1        0.1499
     73 CA        138.5947  141.5325  162.9309 C.3     1  PHE1        0.1485
     74 N         138.7701  141.2491  161.4684 N.am    1  PHE1       -0.2972
     75 C         138.1717  140.0119  160.8671 C.2     1  PHE1        0.2374
     76 O         137.3979  139.0582  161.7284 O.2     1  PHE1       -0.2736
     77 H         139.2779  141.8750  160.9031 H       1  PHE1        0.1499
     78 CA        138.3471  139.7285  159.4046 C.3     1  PHE1        0.1359
     79 N         139.5863  139.0376  158.9179 N.3     1  PHE1       -0.2899
     80 C         139.4799  137.9166  157.9268 C.3     0  ACE0        0.0862
     81 H         140.0551  138.6593  159.7410 H       1  PHE1        0.1237
     82 CB        137.2833  140.1361  158.4288 C.3     1  PHE1        0.0514
     83 CG        137.5170  141.2945  157.5049 C.ar    1  PHE1       -0.0203
     84 CD1       136.8139  141.3517  156.1811 C.ar    1  PHE1       -0.0042
     85 CE1       137.0476  142.5100  155.2572 C.ar    1  PHE1       -0.0003
     86 CZ        137.9844  143.6111  155.6571 C.ar    1  PHE1       -0.0000
     87 CE2       138.6875  143.5539  156.9809 C.ar    1  PHE1       -0.0003
     88 CD2       138.4538  142.3956  157.9048 C.ar    1  PHE1       -0.0042
     89 CB        138.0279  142.8476  163.3773 C.3     1  PHE1        0.0269
     90 CG2       137.6178  143.4379  162.5532 C.3     1  PHE1        0.0022
     91 CD1       139.3426  143.7184  165.4420 C.3     1  PHE1        0.0001
     92 CG1       138.0653  143.2267  164.8281 C.3     1  PHE1        0.0021
     93 CB        138.1434  137.2990  165.4492 C.3     1  PHE1        0.1660
     94 O         137.5134  136.3915  166.4639 O.3     1  PHE1       -0.3798
     95 H         138.0900  136.3259  167.2412 H       1  PHE1        0.2105
     96 CB        137.7491  139.6506  170.8208 C.3     1  PHE1        0.0385
     97 CG        136.5760  138.7159  170.8290 C.3     1  PHE1        0.0870
     98 CD        136.3431  137.8148  172.0053 C.2     1  PHE1        0.2194
     99 NE2       137.1393  136.5520  172.1520 N.am    1  PHE1       -0.3288
    100 OE1       135.3141  138.1764  173.0349 O.2     1  PHE1       -0.2753
    101 HE21      137.8148  136.3147  171.4762 H       1  PHE1        0.1449
    102 HE22      136.9865  135.9606  172.9241 H       1  PHE1        0.1449
    103 CB        141.9996  143.0699  170.1489 C.3     1  PHE1        0.0269
    104 CG2       143.1129  142.5293  170.9965 C.3     1  PHE1        0.0022
    105 CG1       141.3171  144.3490  170.5339 C.3     1  PHE1        0.0021
    106 CD1       139.9986  144.7106  169.9169 C.3     1  PHE1        0.0001
@<TRIPOS>BOND
     1    91    92    1
     2    92    89    1
     3    89    90    1
     4    89    73    1
     5    73    74    1
     6    74    75   am
     7    75    76    2
     8    75    78    1
     9    78    82    1
    10    82    83    1
    11    83    84   ar
    12    84    85   ar
    13    85    86   ar
    14    86    87   ar
    15    87    88   ar
    16    78    79    1
    17    79    80    1
    18    73    69    1
    19    69    70    2
    20    69    71   am
    21    71    68    1
    22    68    93    1
    23    93    94    1
    24    68    64    1
    25    64    65    2
    26    64    66   am
    27    66    63    1
    28    63    96    1
    29    96    97    1
    30    97    98    1
    31    98    99   am
    32    98   100    2
    33    63    59    1
    34    59    60    2
    35    59    61   am
    36    58    61    1
    37    58     1    1
    38     1     2    2
    39     1     3   am
    40     5     3    1
    41     5     6    1
    42     6     7    2
    43     6     8   am
    44     8    10    1
    45    10    51    1
    46    51    52    1
    47    10    11    1
    48    11    12    2
    49    11    13   am
    50    15    13    1
    51    15    16    1
    52    16    17    2
    53    16    18   am
    54    18    19    1
    55    19    20    1
    56    19    21    1
    57    21    22    2
    58    21    23   am
    59    23    24    1
    60    24    41    1
    61    42    41    1
    62    42    43    1
    63    43    44    1
    64    44    45    1
    65    45    46    2
    66    45    47    1
    67    24    25    1
    68    25    26    2
    69    25    27   am
    70    28    27    1
    71    28    37    1
    72    37    38    1
    73    37    39    1
    74    39    40    1
    75    28    29    1
    76    29    30    2
    77    29    31    1
    78    31    32    1
    79    32    33    1
    80     5    54    1
    81    54    55    1
    82    54    56    1
    83    56    57    1
    84    58   103    1
    85   103   104    1
    86   103   105    1
    87   105   106    1
    88    88    83   ar
    89    32    15    1
    90    47    42    1
    91    74    77    1
    92    79    81    1
    93    71    72    1
    94    94    95    1
    95    66    67    1
    96    99   101    1
    97    99   102    1
    98    61    62    1
    99     3     4    1
   100     8     9    1
   101    52    53    1
   102    13    14    1
   103    18    34    1
   104    23    35    1
   105    44    48    1
   106    46    49    1
   107    47    50    1
   108    27    36    1
@<TRIPOS>MOLECULE
*****
 106 108 0 0 0
SMALL
GASTEIGER

@<TRIPOS>ATOM
      1 C         142.1064  142.8776  154.1355 C.2     1  PHE1        0.2406
      2 O         143.4058  143.5087  153.7315 O.2     1  PHE1       -0.2733
      3 N         142.0869  141.4746  154.6657 N.am    1  PHE1       -0.2970
      4 H         141.2340  141.0603  154.9308 H       1  PHE1        0.1499
      5 CA        143.3669  140.7027  154.7921 C.3     1  PHE1        0.1485
      6 C         144.2408  140.8915  155.9965 C.2     1  PHE1        0.2407
      7 O         145.1488  139.7850  156.4452 O.2     1  PHE1       -0.2733
      8 N         144.2067  142.1867  156.7523 N.am    2  UNK2       -0.2950
      9 H         143.6108  142.9129  156.4578 H       2  UNK2        0.1499
     10 C         145.0806  142.3755  157.9567 C.3     2  UNK2        0.1782
     11 C         144.5001  142.2401  159.3331 C.2     2  UNK2        0.2433
     12 O         144.8021  143.4156  160.2147 O.2     2  UNK2       -0.2732
     13 N         143.7124  141.0168  159.6979 N.am    2  UNK2       -0.2941
     14 H         143.5764  140.3028  159.0339 H       2  UNK2        0.1500
     15 C         143.1319  140.8815  161.0744 C.3     2  UNK2        0.1890
     16 C         144.1641  140.0917  161.8233 C.2     2  UNK2        0.2443
     17 O         145.2386  139.8491  160.8052 O.2     2  UNK2       -0.2732
     18 N         144.6820  139.4181  163.0594 N.am    2  UNK2       -0.2969
     19 C         144.5668  139.0150  164.4996 C.3     2  UNK2        0.1486
     20 C         145.8342  138.2569  164.7625 C.3     2  UNK2        0.0312
     21 C         143.8452  138.9746  165.8140 C.2     2  UNK2        0.2406
     22 O         144.7671  138.1973  166.7060 O.2     2  UNK2       -0.2733
     23 N         142.6823  139.3063  166.7014 N.am    2  UNK2       -0.2969
     24 C         141.3445  139.9341  166.9585 C.3     2  UNK2        0.1519
     25 C         140.1383  140.7141  166.5265 C.2     2  UNK2        0.2408
     26 O         139.2859  140.7694  167.7597 O.2     2  UNK2       -0.2733
     27 N         139.3400  141.4677  165.5043 N.am    2  UNK2       -0.2954
     28 C         139.1325  142.0222  164.1261 C.3     2  UNK2        0.1714
     29 C         139.5634  142.2506  162.7076 C.2     2  UNK2        0.3349
     30 O         138.4360  143.0413  162.1128 O.2     2  UNK2       -0.2483
     31 O         140.5340  142.1005  161.5738 O.3     2  UNK2       -0.4489
     32 C         141.8218  141.6064  160.9843 C.3     2  UNK2        0.1956
     33 C         141.6125  142.1617  159.6067 C.3     2  UNK2        0.0497
     34 H         145.5500  139.0472  162.7796 H       2  UNK2        0.1499
     35 H         142.9221  138.9003  167.5656 H       2  UNK2        0.1499
     36 H         138.5298  141.7407  165.9925 H       2  UNK2        0.1499
     37 C         137.7988  142.7035  164.2103 C.3     2  UNK2        0.0289
     38 C         136.5678  142.0066  163.7114 C.3     2  UNK2        0.0023
     39 C         137.6962  144.0817  164.7934 C.3     2  UNK2        0.0022
     40 C         138.9381  144.8850  165.0427 C.3     2  UNK2        0.0001
     41 C         141.0695  139.6160  168.3984 C.3     2  UNK2        0.0693
     42 C         141.6361  140.4868  169.4803 C.3     2  UNK2        0.1690
     43 C         141.7573  140.1245  170.9308 C.3     2  UNK2        0.2006
     44 N         142.3771  141.2866  171.6486 N.pl3   2  UNK2       -0.2224
     45 C         142.6390  142.3672  170.6417 C.cat   2  UNK2        0.3634
     46 N         143.2513  143.7069  170.9252 N.2     2  UNK2       -0.1334
     47 N         142.1810  141.8729  169.3016 N.pl3   2  UNK2       -0.2251
     48 H         142.5769  141.3321  172.6115 H       2  UNK2        0.2453
     49 H         143.5211  143.9406  171.8427 H       2  UNK2        0.3058
     50 H         142.2295  142.3707  168.4537 H       2  UNK2        0.2452
     51 C         146.5350  142.6997  157.7846 C.3     2  UNK2        0.1660
     52 O         147.0197  143.3177  156.5067 O.3     2  UNK2       -0.3798
     53 H         146.9070  142.6863  155.7790 H       2  UNK2        0.2105
     54 CB        143.7729  139.7421  153.7140 C.3     1  PHE1        0.0269
     55 CG2       143.1661  138.9401  153.2843 C.3     1  PHE1        0.0022
     56 CG1       145.1434  139.8276  153.1105 C.3     1  PHE1        0.0021
     57 CD1       145.6978  141.1578  152.6940 C.3     1  PHE1        0.0001
     58 CA        140.8264  143.6495  154.0091 C.3     1  PHE1        0.1485
     59 C         140.5964  144.1383  156.5503 C.2     1  PHE1        0.2406
     60 O         142.0905  144.1761  156.6783 O.2     1  PHE1       -0.2733
     61 N         139.9644  143.8750  155.2158 N.am    1  PHE1       -0.2970
     62 H         138.9838  143.8502  155.1319 H       1  PHE1        0.1499
     63 CA        139.7344  144.3639  157.7570 C.3     1  PHE1        0.1491
     64 C         138.7556  141.9594  157.6561 C.2     1  PHE1        0.2432
     65 O         139.9582  141.5022  156.8850 O.2     1  PHE1       -0.2732
     66 N         138.6437  143.3903  158.0921 N.am    1  PHE1       -0.2969
     67 H         137.8544  143.6903  158.5982 H       1  PHE1        0.1499
     68 CA        137.6649  140.9857  157.9912 C.3     1  PHE1        0.1782
     69 C         136.2949  141.5371  155.8536 C.2     1  PHE1        0.2407
     70 O         136.9017  142.9084  155.8184 O.2     1  PHE1       -0.2733
     71 N         136.6765  140.5757  156.9400 N.am    1  PHE1       -0.2950
     72 H         136.2782  139.6757  156.9631 H       1  PHE1        0.1499
     73 CA        135.3066  141.1270  154.8025 C.3     1  PHE1        0.1485
     74 N         133.8353  141.2132  155.0819 N.am    1  PHE1       -0.2972
     75 C         133.1764  140.1868  155.9550 C.2     1  PHE1        0.2374
     76 O         133.9886  139.0742  156.5486 O.2     1  PHE1       -0.2736
     77 H         133.3022  141.9434  154.6923 H       1  PHE1        0.1499
     78 CA        131.7051  140.2730  156.2344 C.3     1  PHE1        0.1359
     79 N         130.7839  140.8854  155.2214 N.3     1  PHE1       -0.2899
     80 C         130.8121  142.3656  154.9800 C.3     0  ACE0        0.0862
     81 H         129.8334  140.6520  155.5086 H       1  PHE1        0.1237
     82 CB        131.1551  139.7468  157.5269 C.3     1  PHE1        0.0514
     83 CG        130.0683  138.7129  157.5140 C.ar    1  PHE1       -0.0203
     84 CD1       129.5669  138.1356  158.8045 C.ar    1  PHE1       -0.0042
     85 CE1       128.4802  137.1019  158.7915 C.ar    1  PHE1       -0.0003
     86 CZ        127.8948  136.6454  157.4880 C.ar    1  PHE1       -0.0000
     87 CE2       128.3963  137.2227  156.1976 C.ar    1  PHE1       -0.0003
     88 CD2       129.4830  138.2564  156.2105 C.ar    1  PHE1       -0.0042
     89 CB        135.7894  140.6308  153.4718 C.3     1  PHE1        0.0269
     90 CG2       136.0083  141.4389  152.7683 C.3     1  PHE1        0.0022
     91 CD1       136.5943  138.2851  154.2462 C.3     1  PHE1        0.0001
     92 CG1       135.9259  139.1576  153.2253 C.3     1  PHE1        0.0021
     93 CB        137.5625  140.4220  159.3775 C.3     1  PHE1        0.1660
     94 O         138.8031  140.0094  160.1129 O.3     1  PHE1       -0.3798
     95 H         139.2111  139.2546  159.6605 H       1  PHE1        0.2105
     96 CB        139.9631  145.5631  158.6286 C.3     1  PHE1        0.0385
     97 CG        140.9812  145.5076  159.7287 C.3     1  PHE1        0.0870
     98 CD        140.5517  145.6665  161.1570 C.2     1  PHE1        0.2194
     99 NE2       141.4498  145.2046  162.2662 N.am    1  PHE1       -0.3288
    100 OE1       139.2240  146.2872  161.4763 O.2     1  PHE1       -0.2753
    101 HE21      142.3212  144.7972  162.0566 H       1  PHE1        0.1449
    102 HE22      141.1678  145.3089  163.2036 H       1  PHE1        0.1449
    103 CB        140.4085  144.1958  152.6761 C.3     1  PHE1        0.0269
    104 CG2       139.2206  143.6162  151.9670 C.3     1  PHE1        0.0022
    105 CG1       141.1786  145.3218  152.0522 C.3     1  PHE1        0.0021
    106 CD1       141.2144  146.6654  152.7181 C.3     1  PHE1        0.0001
@<TRIPOS>BOND
     1    91    92    1
     2    92    89    1
     3    89    90    1
     4    89    73    1
     5    73    74    1
     6    74    75   am
     7    75    76    2
     8    75    78    1
     9    78    82    1
    10    82    83    1
    11    83    84   ar
    12    84    85   ar
    13    85    86   ar
    14    86    87   ar
    15    87    88   ar
    16    78    79    1
    17    79    80    1
    18    73    69    1
    19    69    70    2
    20    69    71   am
    21    71    68    1
    22    68    93    1
    23    93    94    1
    24    68    64    1
    25    64    65    2
    26    64    66   am
    27    66    63    1
    28    63    96    1
    29    96    97    1
    30    97    98    1
    31    98    99   am
    32    98   100    2
    33    63    59    1
    34    59    60    2
    35    59    61   am
    36    58    61    1
    37    58     1    1
    38     1     2    2
    39     1     3   am
    40     5     3    1
    41     5     6    1
    42     6     7    2
    43     6     8   am
    44     8    10    1
    45    10    51    1
    46    51    52    1
    47    10    11    1
    48    11    12    2
    49    11    13   am
    50    15    13    1
    51    15    16    1
    52    16    17    2
    53    16    18   am
    54    18    19    1
    55    19    20    1
    56    19    21    1
    57    21    22    2
    58    21    23   am
    59    23    24    1
    60    24    41    1
    61    42    41    1
    62    42    43    1
    63    43    44    1
    64    44    45    1
    65    45    46    2
    66    45    47    1
    67    24    25    1
    68    25    26    2
    69    25    27   am
    70    28    27    1
    71    28    37    1
    72    37    38    1
    73    37    39    1
    74    39    40    1
    75    28    29    1
    76    29    30    2
    77    29    31    1
    78    31    32    1
    79    32    33    1
    80     5    54    1
    81    54    55    1
    82    54    56    1
    83    56    57    1
    84    58   103    1
    85   103   104    1
    86   103   105    1
    87   105   106    1
    88    88    83   ar
    89    32    15    1
    90    47    42    1
    91    74    77    1
    92    79    81    1
    93    71    72    1
    94    94    95    1
    95    66    67    1
    96    99   101    1
    97    99   102    1
    98    61    62    1
    99     3     4    1
   100     8     9    1
   101    52    53    1
   102    13    14    1
   103    18    34    1
   104    23    35    1
   105    44    48    1
   106    46    49    1
   107    47    50    1
   108    27    36    1
@<TRIPOS>MOLECULE
*****
 106 108 0 0 0
SMALL
GASTEIGER

@<TRIPOS>ATOM
      1 C         140.5265  141.3353  165.4812 C.2     1  PHE1        0.2406
      2 O         139.1991  141.9991  165.2633 O.2     1  PHE1       -0.2733
      3 N         140.7191  139.8987  165.0950 N.am    1  PHE1       -0.2970
      4 H         141.5903  139.4631  165.2379 H       1  PHE1        0.1499
      5 CA        139.5842  139.1259  164.4909 C.3     1  PHE1        0.1485
      6 C         139.2722  139.2696  163.0308 C.2     1  PHE1        0.2407
      7 O         137.9090  138.9128  162.5165 O.2     1  PHE1       -0.2733
      8 N         140.3233  139.7701  162.0849 N.am    2  UNK2       -0.2950
      9 H         141.2180  140.0043  162.4225 H       2  UNK2        0.1499
     10 C         140.0113  139.9139  160.6248 C.3     2  UNK2        0.1782
     11 C         140.2256  138.7568  159.6947 C.2     2  UNK2        0.2433
     12 O         139.1848  137.6866  159.8412 O.2     2  UNK2       -0.2732
     13 N         141.3906  138.7596  158.7499 N.am    2  UNK2       -0.2941
     14 H         142.0147  139.5210  158.7403 H       2  UNK2        0.1500
     15 C         141.6049  137.6025  157.8198 C.3     2  UNK2        0.1890
     16 C         140.7611  137.9401  156.6265 C.2     2  UNK2        0.2443
     17 O         140.1430  139.2588  156.9854 O.2     2  UNK2       -0.2732
     18 N         140.2131  137.6465  155.2614 N.am    2  UNK2       -0.2969
     19 C         140.0866  136.7889  154.0372 C.3     2  UNK2        0.1486
     20 C         139.1456  137.5567  153.1569 C.3     2  UNK2        0.0312
     21 C         140.4103  135.5639  153.2344 C.2     2  UNK2        0.2406
     22 O         139.6244  135.7454  151.9698 O.2     2  UNK2       -0.2733
     23 N         141.1103  134.2520  153.0369 N.am    2  UNK2       -0.2969
     24 C         142.0262  133.1539  153.4899 C.3     2  UNK2        0.1519
     25 C         142.9480  132.5210  154.4897 C.2     2  UNK2        0.2408
     26 O         143.3767  131.2459  153.8259 O.2     2  UNK2       -0.2733
     27 N         143.6647  132.4983  155.8073 N.am    2  UNK2       -0.2954
     28 C         144.0121  133.0910  157.1406 C.3     2  UNK2        0.1714
     29 C         143.9106  134.1635  158.1845 C.2     2  UNK2        0.3349
     30 O         144.7999  133.6747  159.2891 O.2     2  UNK2       -0.2483
     31 O         143.3833  135.4699  158.6996 O.3     2  UNK2       -0.4489
     32 C         142.5512  136.7110  158.5680 C.3     2  UNK2        0.1956
     33 C         142.8998  137.3021  159.9018 C.3     2  UNK2        0.0497
     34 H         139.6353  138.4198  155.0681 H       2  UNK2        0.1499
     35 H         140.8144  133.9590  152.1448 H       2  UNK2        0.1499
     36 H         144.1712  131.6543  155.7855 H       2  UNK2        0.1499
     37 C         144.9500  132.0889  157.7456 C.3     2  UNK2        0.0289
     38 C         146.2915  132.5282  158.2533 C.3     2  UNK2        0.0023
     39 C         144.5466  130.6475  157.8430 C.3     2  UNK2        0.0022
     40 C         143.1232  130.2482  157.5892 C.3     2  UNK2        0.0001
     41 C         142.0136  132.1818  152.3476 C.3     2  UNK2        0.0693
     42 C         141.0193  131.0589  152.3293 C.3     2  UNK2        0.1690
     43 C         139.5264  131.2028  152.3521 C.3     2  UNK2        0.2006
     44 N         138.9277  129.8278  152.3219 N.pl3   2  UNK2       -0.2224
     45 C         140.0506  128.8341  152.2804 C.cat   2  UNK2        0.3634
     46 N         139.9062  127.3416  152.2413 N.2     2  UNK2       -0.1334
     47 N         141.3432  129.5950  152.2850 N.pl3   2  UNK2       -0.2251
     48 H         137.9665  129.6149  152.3282 H       2  UNK2        0.2453
     49 H         139.0102  126.9335  152.2414 H       2  UNK2        0.3058
     50 H         142.2458  129.2025  152.2629 H       2  UNK2        0.2452
     51 C         139.4850  141.2147  160.0949 C.3     2  UNK2        0.1660
     52 O         140.0514  141.7947  158.8328 O.3     2  UNK2       -0.3798
     53 H         140.9781  142.0417  158.9780 H       2  UNK2        0.2105
     54 CB        138.7614  138.2095  165.3470 C.3     1  PHE1        0.0269
     55 CG2       138.6829  137.1221  165.2607 C.3     1  PHE1        0.0022
     56 CG1       137.9297  138.7704  166.4622 C.3     1  PHE1        0.0021
     57 CD1       137.1483  137.8493  167.3515 C.3     1  PHE1        0.0001
     58 CA        141.6614  142.1082  166.0852 C.3     1  PHE1        0.1485
     59 C         142.7861  142.7800  163.8417 C.2     1  PHE1        0.2406
     60 O         142.4081  141.4524  163.2546 O.2     1  PHE1       -0.2733
     61 N         142.4128  143.1079  165.2569 N.am    1  PHE1       -0.2970
     62 H         142.6608  143.9793  165.6422 H       1  PHE1        0.1499
     63 CA        143.5375  143.7798  163.0134 C.3     1  PHE1        0.1491
     64 C         143.4781  143.2890  160.4629 C.2     1  PHE1        0.2432
     65 O         142.0285  143.6724  160.4228 O.2     1  PHE1       -0.2732
     66 N         144.2326  143.3427  161.7582 N.am    1  PHE1       -0.2969
     67 H         145.1840  143.0911  161.7845 H       1  PHE1        0.1499
     68 CA        144.1733  142.8519  159.2076 C.3     1  PHE1        0.1782
     69 C         143.1796  141.3727  157.3169 C.2     1  PHE1        0.2407
     70 O         143.7307  140.1481  157.9854 O.2     1  PHE1       -0.2733
     71 N         143.4009  142.7246  157.9280 N.am    1  PHE1       -0.2950
     72 H         143.0393  143.5283  157.4893 H       1  PHE1        0.1499
     73 CA        142.4073  141.2454  156.0374 C.3     1  PHE1        0.1485
     74 N         141.0673  141.9055  155.9013 N.am    1  PHE1       -0.2972
     75 C         140.9810  143.3716  155.5958 C.2     1  PHE1        0.2374
     76 O         142.2347  144.1775  155.4264 O.2     1  PHE1       -0.2736
     77 H         140.2444  141.3766  156.0125 H       1  PHE1        0.1499
     78 CA        139.6409  144.0317  155.4597 C.3     1  PHE1        0.1359
     79 N         139.2652  145.1614  156.3722 N.3     1  PHE1       -0.2899
     80 C         140.3233  146.0882  156.8934 C.3     0  ACE0        0.0862
     81 H         138.8121  144.7448  157.1855 H       1  PHE1        0.1237
     82 CB        138.6766  143.5621  154.4111 C.3     1  PHE1        0.0514
     83 CG        137.5151  142.6940  154.7952 C.ar    1  PHE1       -0.0203
     84 CD1       136.3816  142.4895  153.8343 C.ar    1  PHE1       -0.0042
     85 CE1       135.2202  141.6215  154.2183 C.ar    1  PHE1       -0.0003
     86 CZ        135.1923  140.9579  155.5633 C.ar    1  PHE1       -0.0000
     87 CE2       136.3258  141.1624  156.5242 C.ar    1  PHE1       -0.0003
     88 CD2       137.4872  142.0304  156.1401 C.ar    1  PHE1       -0.0042
     89 CB        142.9751  140.4580  154.8939 C.3     1  PHE1        0.0269
     90 CG2       142.2768  140.3531  154.0589 C.3     1  PHE1        0.0022
     91 CD1       144.5858  138.4366  155.1576 C.3     1  PHE1        0.0001
     92 CG1       144.3688  139.9101  154.9793 C.3     1  PHE1        0.0021
     93 CB        145.6408  142.5422  159.2319 C.3     1  PHE1        0.1660
     94 O         146.5407  143.0900  158.1641 O.3     1  PHE1       -0.3798
     95 H         146.3057  142.6957  157.3096 H       1  PHE1        0.2105
     96 CB        143.5937  145.2166  163.4405 C.3     1  PHE1        0.0385
     97 CG        142.3330  145.9373  163.8163 C.3     1  PHE1        0.0870
     98 CD        141.0311  145.5546  163.1769 C.2     1  PHE1        0.2194
     99 NE2       140.7722  145.8972  161.7397 N.am    1  PHE1       -0.3288
    100 OE1       139.9884  144.8294  163.9747 O.2     1  PHE1       -0.2753
    101 HE21      141.4566  146.3733  161.2161 H       1  PHE1        0.1449
    102 HE22      139.9177  145.6461  161.3200 H       1  PHE1        0.1449
    103 CB        142.0449  141.8812  167.5175 C.3     1  PHE1        0.0269
    104 CG2       143.3781  142.3501  168.0203 C.3     1  PHE1        0.0022
    105 CG1       141.0953  141.1854  168.4470 C.3     1  PHE1        0.0021
    106 CD1       141.3675  141.1673  169.9220 C.3     1  PHE1        0.0001
@<TRIPOS>BOND
     1    91    92    1
     2    92    89    1
     3    89    90    1
     4    89    73    1
     5    73    74    1
     6    74    75   am
     7    75    76    2
     8    75    78    1
     9    78    82    1
    10    82    83    1
    11    83    84   ar
    12    84    85   ar
    13    85    86   ar
    14    86    87   ar
    15    87    88   ar
    16    78    79    1
    17    79    80    1
    18    73    69    1
    19    69    70    2
    20    69    71   am
    21    71    68    1
    22    68    93    1
    23    93    94    1
    24    68    64    1
    25    64    65    2
    26    64    66   am
    27    66    63    1
    28    63    96    1
    29    96    97    1
    30    97    98    1
    31    98    99   am
    32    98   100    2
    33    63    59    1
    34    59    60    2
    35    59    61   am
    36    58    61    1
    37    58     1    1
    38     1     2    2
    39     1     3   am
    40     5     3    1
    41     5     6    1
    42     6     7    2
    43     6     8   am
    44     8    10    1
    45    10    51    1
    46    51    52    1
    47    10    11    1
    48    11    12    2
    49    11    13   am
    50    15    13    1
    51    15    16    1
    52    16    17    2
    53    16    18   am
    54    18    19    1
    55    19    20    1
    56    19    21    1
    57    21    22    2
    58    21    23   am
    59    23    24    1
    60    24    41    1
    61    42    41    1
    62    42    43    1
    63    43    44    1
    64    44    45    1
    65    45    46    2
    66    45    47    1
    67    24    25    1
    68    25    26    2
    69    25    27   am
    70    28    27    1
    71    28    37    1
    72    37    38    1
    73    37    39    1
    74    39    40    1
    75    28    29    1
    76    29    30    2
    77    29    31    1
    78    31    32    1
    79    32    33    1
    80     5    54    1
    81    54    55    1
    82    54    56    1
    83    56    57    1
    84    58   103    1
    85   103   104    1
    86   103   105    1
    87   105   106    1
    88    88    83   ar
    89    32    15    1
    90    47    42    1
    91    74    77    1
    92    79    81    1
    93    71    72    1
    94    94    95    1
    95    66    67    1
    96    99   101    1
    97    99   102    1
    98    61    62    1
    99     3     4    1
   100     8     9    1
   101    52    53    1
   102    13    14    1
   103    18    34    1
   104    23    35    1
   105    44    48    1
   106    46    49    1
   107    47    50    1
   108    27    36    1
@<TRIPOS>MOLECULE
*****
 106 108 0 0 0
SMALL
GASTEIGER

@<TRIPOS>ATOM
      1 C         142.6343  143.8366  154.0915 C.2     1  PHE1        0.2406
      2 O         143.6810  144.9098  154.1441 O.2     1  PHE1       -0.2733
      3 N         143.0363  142.3929  154.1563 N.am    1  PHE1       -0.2970
      4 H         142.3493  141.6886  154.1218 H       1  PHE1        0.1499
      5 CA        144.4851  142.0224  154.2738 C.3     1  PHE1        0.1485
      6 C         145.1136  141.8727  155.6275 C.2     1  PHE1        0.2407
      7 O         145.9652  140.6758  155.9309 O.2     1  PHE1       -0.2733
      8 N         144.8905  142.9201  156.6779 N.am    2  UNK2       -0.2950
      9 H         144.3315  143.7057  156.4788 H       2  UNK2        0.1499
     10 C         145.5190  142.7705  158.0317 C.3     2  UNK2        0.1782
     11 C         144.6560  142.5571  159.2397 C.2     2  UNK2        0.2433
     12 O         143.5825  143.5948  159.3838 O.2     2  UNK2       -0.2732
     13 N         144.9171  141.3956  160.1524 N.am    2  UNK2       -0.2941
     14 H         145.6549  140.7733  159.9584 H       2  UNK2        0.1500
     15 C         144.0539  141.1822  161.3605 C.3     2  UNK2        0.1890
     16 C         144.6985  142.0304  162.4165 C.2     2  UNK2        0.2443
     17 O         145.8701  142.6497  161.7138 O.2     2  UNK2       -0.2732
     18 N         144.7823  142.5822  163.8088 N.am    2  UNK2       -0.2969
     19 C         144.2860  142.7111  165.2184 C.3     2  UNK2        0.1486
     20 C         145.2603  143.6562  165.8569 C.3     2  UNK2        0.0312
     21 C         143.3236  142.3877  166.3226 C.2     2  UNK2        0.2406
     22 O         143.8371  143.1780  167.4894 O.2     2  UNK2       -0.2733
     23 N         142.1153  141.6860  166.8681 N.am    2  UNK2       -0.2969
     24 C         140.9381  140.7668  166.7302 C.3     2  UNK2        0.1519
     25 C         140.0615  139.8406  165.9404 C.2     2  UNK2        0.2408
     26 O         139.0136  139.4117  166.9244 O.2     2  UNK2       -0.2733
     27 N         139.6864  139.1196  164.6795 N.am    2  UNK2       -0.2954
     28 C         139.8988  138.7691  163.2367 C.3     2  UNK2        0.1714
     29 C         140.6499  138.8692  161.9422 C.2     2  UNK2        0.3349
     30 O         139.8838  137.9755  161.0124 O.2     2  UNK2       -0.2483
     31 O         141.7678  139.3972  161.0927 O.3     2  UNK2       -0.4489
     32 C         142.9963  140.2319  160.8827 C.3     2  UNK2        0.1956
     33 C         143.2069  139.8801  159.4398 C.3     2  UNK2        0.0497
     34 H         145.5776  143.1620  163.7850 H       2  UNK2        0.1499
     35 H         142.0728  141.9843  167.8054 H       2  UNK2        0.1499
     36 H         138.8809  138.6117  164.9293 H       2  UNK2        0.1499
     37 C         138.7731  137.8274  162.9266 C.3     2  UNK2        0.0289
     38 C         138.4156  136.7406  163.8967 C.3     2  UNK2        0.0023
     39 C         138.0048  137.9726  161.6466 C.3     2  UNK2        0.0022
     40 C         137.0229  139.0949  161.4843 C.3     2  UNK2        0.0001
     41 C         140.3098  140.7812  168.0922 C.3     2  UNK2        0.0693
     42 C         141.1674  140.6451  169.3152 C.3     2  UNK2        0.1690
     43 C         141.0023  141.4063  170.5971 C.3     2  UNK2        0.2006
     44 N         142.0736  140.9555  171.5453 N.pl3   2  UNK2       -0.2224
     45 C         142.9010  139.9156  170.8494 C.cat   2  UNK2        0.3634
     46 N         144.0811  139.1943  171.4297 N.2     2  UNK2       -0.1334
     47 N         142.3409  139.7238  169.4711 N.pl3   2  UNK2       -0.2251
     48 H         142.2099  141.2844  172.4631 H       2  UNK2        0.2453
     49 H         144.3745  139.3902  172.3489 H       2  UNK2        0.3058
     50 H         142.6834  139.1024  168.7887 H       2  UNK2        0.2452
     51 C         147.0106  142.8342  158.1772 C.3     2  UNK2        0.1660
     52 O         147.8940  142.3567  157.0630 O.3     2  UNK2       -0.3798
     53 H         147.7828  141.3997  156.9498 H       2  UNK2        0.2105
     54 CB        145.3053  141.8015  153.0376 C.3     1  PHE1        0.0269
     55 CG2       146.0841  142.4573  152.6385 C.3     1  PHE1        0.0022
     56 CG1       145.0923  140.5713  152.2061 C.3     1  PHE1        0.0021
     57 CD1       146.1833  139.5489  152.0862 C.3     1  PHE1        0.0001
     58 CA        141.1855  144.2072  153.9741 C.3     1  PHE1        0.1485
     59 C         140.8024  144.4738  156.5298 C.2     1  PHE1        0.2406
     60 O         142.2180  144.9424  156.6931 O.2     1  PHE1       -0.2733
     61 N         140.2862  144.1062  155.1703 N.am    1  PHE1       -0.2970
     62 H         139.3571  143.7987  155.0632 H       1  PHE1        0.1499
     63 CA        139.9031  144.3729  157.7261 C.3     1  PHE1        0.1491
     64 C         139.3616  141.8469  157.4504 C.2     1  PHE1        0.2432
     65 O         140.7504  141.6051  156.9378 O.2     1  PHE1       -0.2732
     66 N         138.9380  143.2308  157.8445 N.am    1  PHE1       -0.2969
     67 H         138.0264  143.3895  158.1809 H       1  PHE1        0.1499
     68 CA        138.3964  140.7048  157.5689 C.3     1  PHE1        0.1782
     69 C         136.9661  141.4133  155.5190 C.2     1  PHE1        0.2407
     70 O         138.1856  141.9979  154.8701 O.2     1  PHE1       -0.2733
     71 N         137.0715  140.7668  156.8684 N.am    1  PHE1       -0.2950
     72 H         136.2711  140.3831  157.2942 H       1  PHE1        0.1499
     73 CA        135.6412  141.4753  154.8185 C.3     1  PHE1        0.1485
     74 N         134.3702  141.4602  155.6151 N.am    1  PHE1       -0.2972
     75 C         133.7236  140.1544  155.9709 C.2     1  PHE1        0.2374
     76 O         134.3479  138.8636  155.5302 O.2     1  PHE1       -0.2736
     77 H         133.9605  142.3074  155.9043 H       1  PHE1        0.1499
     78 CA        132.4526  140.1393  156.7675 C.3     1  PHE1        0.1359
     79 N         132.4775  139.7358  158.2120 N.3     1  PHE1       -0.2899
     80 C         133.4082  138.6533  158.6724 C.3     0  ACE0        0.0862
     81 H         131.5330  139.4328  158.4494 H       1  PHE1        0.1237
     82 CB        131.1567  140.5277  156.1195 C.3     1  PHE1        0.0514
     83 CG        129.9344  139.6818  156.3208 C.ar    1  PHE1       -0.0203
     84 CD1       130.0528  138.1867  156.3459 C.ar    1  PHE1       -0.0042
     85 CE1       128.8306  137.3409  156.5472 C.ar    1  PHE1       -0.0003
     86 CZ        127.4899  137.9901  156.7233 C.ar    1  PHE1       -0.0000
     87 CE2       127.3715  139.4852  156.6981 C.ar    1  PHE1       -0.0003
     88 CD2       128.5937  140.3311  156.4969 C.ar    1  PHE1       -0.0042
     89 CB        135.5872  141.5524  153.3215 C.3     1  PHE1        0.0269
     90 CG2       135.4395  142.5706  152.9511 C.3     1  PHE1        0.0022
     91 CD1       136.9190  139.4108  152.6972 C.3     1  PHE1        0.0001
     92 CG1       135.7310  140.3052  152.5006 C.3     1  PHE1        0.0021
     93 CB        138.7562  139.5007  158.3879 C.3     1  PHE1        0.1660
     94 O         140.1897  139.0753  158.5064 O.3     1  PHE1       -0.3798
     95 H         140.5135  138.7846  157.6395 H       1  PHE1        0.2105
     96 CB        139.9689  145.4140  158.8039 C.3     1  PHE1        0.0385
     97 CG        140.9379  145.2590  159.9383 C.3     1  PHE1        0.0870
     98 CD        140.4479  144.8330  161.2905 C.2     1  PHE1        0.2194
     99 NE2       141.4306  144.4922  162.3713 N.am    1  PHE1       -0.3288
    100 OE1       138.9752  144.7477  161.5618 O.2     1  PHE1       -0.2753
    101 HE21      142.3973  144.5482  162.1932 H       1  PHE1        0.1449
    102 HE22      141.1090  144.2125  163.2587 H       1  PHE1        0.1449
    103 CB        140.6361  144.6787  152.6603 C.3     1  PHE1        0.0269
    104 CG2       139.5670  143.8872  151.9671 C.3     1  PHE1        0.0022
    105 CG1       141.1558  145.9416  152.0399 C.3     1  PHE1        0.0021
    106 CD1       141.1450  147.2213  152.8224 C.3     1  PHE1        0.0001
@<TRIPOS>BOND
     1    91    92    1
     2    92    89    1
     3    89    90    1
     4    89    73    1
     5    73    74    1
     6    74    75   am
     7    75    76    2
     8    75    78    1
     9    78    82    1
    10    82    83    1
    11    83    84   ar
    12    84    85   ar
    13    85    86   ar
    14    86    87   ar
    15    87    88   ar
    16    78    79    1
    17    79    80    1
    18    73    69    1
    19    69    70    2
    20    69    71   am
    21    71    68    1
    22    68    93    1
    23    93    94    1
    24    68    64    1
    25    64    65    2
    26    64    66   am
    27    66    63    1
    28    63    96    1
    29    96    97    1
    30    97    98    1
    31    98    99   am
    32    98   100    2
    33    63    59    1
    34    59    60    2
    35    59    61   am
    36    58    61    1
    37    58     1    1
    38     1     2    2
    39     1     3   am
    40     5     3    1
    41     5     6    1
    42     6     7    2
    43     6     8   am
    44     8    10    1
    45    10    51    1
    46    51    52    1
    47    10    11    1
    48    11    12    2
    49    11    13   am
    50    15    13    1
    51    15    16    1
    52    16    17    2
    53    16    18   am
    54    18    19    1
    55    19    20    1
    56    19    21    1
    57    21    22    2
    58    21    23   am
    59    23    24    1
    60    24    41    1
    61    42    41    1
    62    42    43    1
    63    43    44    1
    64    44    45    1
    65    45    46    2
    66    45    47    1
    67    24    25    1
    68    25    26    2
    69    25    27   am
    70    28    27    1
    71    28    37    1
    72    37    38    1
    73    37    39    1
    74    39    40    1
    75    28    29    1
    76    29    30    2
    77    29    31    1
    78    31    32    1
    79    32    33    1
    80     5    54    1
    81    54    55    1
    82    54    56    1
    83    56    57    1
    84    58   103    1
    85   103   104    1
    86   103   105    1
    87   105   106    1
    88    88    83   ar
    89    32    15    1
    90    47    42    1
    91    74    77    1
    92    79    81    1
    93    71    72    1
    94    94    95    1
    95    66    67    1
    96    99   101    1
    97    99   102    1
    98    61    62    1
    99     3     4    1
   100     8     9    1
   101    52    53    1
   102    13    14    1
   103    18    34    1
   104    23    35    1
   105    44    48    1
   106    46    49    1
   107    47    50    1
   108    27    36    1
