@<TRIPOS>MOLECULE
*****
 32 35 0 0 0
SMALL
GASTEIGER

@<TRIPOS>ATOM
      1 N         141.8665  138.2225  158.3330 N.ar    1  UNL1       -0.2286
      2 C         140.7037  139.1292  158.0576 C.ar    1  UNL1        0.0990
      3 C         140.1602  139.5989  159.3744 C.ar    1  UNL1        0.0338
      4 C         140.9869  138.9825  160.4636 C.ar    1  UNL1        0.0981
      5 N         142.0415  138.1318  159.8200 N.ar    1  UNL1       -0.1680
      6 C         140.4434  139.4521  161.7804 C.3     1  UNL1        0.1414
      7 N         139.2806  140.3589  161.5050 N.am    1  UNL1       -0.2660
      8 C         138.4405  141.0531  162.5356 C.2     1  UNL1        0.2525
      9 O         137.3043  141.9341  162.1076 O.2     1  UNL1       -0.2698
     10 C         139.1056  140.4496  160.0180 C.3     1  UNL1        0.1236
     11 C         143.7837  133.8435  156.2962 C.3     1  UNL1        0.0521
     12 C         143.6653  135.3387  156.2840 C.ar    1  UNL1        0.0609
     13 C         142.8251  136.0330  157.3146 C.ar    1  UNL1        0.0339
     14 C         142.7067  137.5283  157.3024 C.ar    1  UNL1        0.0855
     15 C         143.4284  138.3294  156.2597 C.ar    1  UNL1        0.0398
     16 C         144.2686  137.6351  155.2291 C.ar    1  UNL1        0.1000
     17 N         144.3871  136.1398  155.2412 N.ar    1  UNL1       -0.2480
     18 C         138.7364  140.8663  163.9942 C.ar    1  UNL1        0.0881
     19 C         138.0717  139.7601  164.7586 C.ar    1  UNL1        0.0178
     20 C         138.3676  139.5733  166.2173 C.ar    1  UNL1        0.0688
     21 C         139.3281  140.4927  166.9115 C.ar    1  UNL1        0.0134
     22 C         139.9928  141.5990  166.1471 C.ar    1  UNL1        0.0377
     23 C         139.6969  141.7858  164.6885 C.ar    1  UNL1        0.1431
     24 C         137.7028  138.4670  166.9817 C.1     1  UNL1        0.1004
     25 N         137.0379  137.3608  167.7460 N.1     1  UNL1       -0.1908
     26 O         140.3616  142.8920  163.9240 O.3     1  UNL1       -0.4702
     27 C         139.7077  144.2389  163.8328 C.3     1  UNL1        0.2599
     28 C         140.2226  145.2584  162.8604 C.3     1  UNL1        0.0566
     29 C         138.5387  144.5663  164.7139 C.3     1  UNL1        0.4340
     30 F         137.3698  144.8937  165.5950 F       1  UNL1       -0.1664
     31 F         139.4608  144.6926  165.8902 F       1  UNL1       -0.1664
     32 F         137.6166  144.4400  163.5375 F       1  UNL1       -0.1664
@<TRIPOS>BOND
     1    11    12    1
     2    12    13   ar
     3    13    14   ar
     4    14     1    1
     5     1     2   ar
     6     2     3   ar
     7     3     4   ar
     8     4     5   ar
     9     4     6    1
    10     6     7    1
    11     7     8   am
    12     8     9    2
    13     8    18    1
    14    18    19   ar
    15    19    20   ar
    16    20    24    1
    17    24    25    3
    18    20    21   ar
    19    21    22   ar
    20    22    23   ar
    21    23    26    1
    22    26    27    1
    23    27    28    1
    24    27    29    1
    25    29    30    1
    26    29    31    1
    27    29    32    1
    28     7    10    1
    29    14    15   ar
    30    15    16   ar
    31    16    17   ar
    32    17    12   ar
    33     5     1   ar
    34    23    18   ar
    35    10     3    1
@<TRIPOS>MOLECULE
*****
 32 35 0 0 0
SMALL
GASTEIGER

@<TRIPOS>ATOM
      1 N         141.7800  143.6429  160.2840 N.ar    1  UNL1       -0.2286
      2 C         142.8136  142.5651  160.4260 C.ar    1  UNL1        0.0990
      3 C         142.7743  142.0689  161.8410 C.ar    1  UNL1        0.0338
      4 C         141.7165  142.8398  162.5735 C.ar    1  UNL1        0.0981
      5 N         141.1020  143.8127  161.6112 N.ar    1  UNL1       -0.1680
      6 C         141.6772  142.3436  163.9884 C.3     1  UNL1        0.1414
      7 N         142.7108  141.2658  164.1305 N.am    1  UNL1       -0.2660
      8 C         143.0132  140.4935  165.3803 C.2     1  UNL1        0.2525
      9 O         144.0806  139.4395  165.3709 O.2     1  UNL1       -0.2698
     10 C         143.3889  141.0961  162.8033 C.3     1  UNL1        0.1236
     11 C         142.7882  144.7122  155.3000 C.3     1  UNL1        0.0521
     12 C         141.9817  144.9499  156.5422 C.ar    1  UNL1        0.0609
     13 C         142.2841  144.1776  157.7920 C.ar    1  UNL1        0.0339
     14 C         141.4776  144.4152  159.0342 C.ar    1  UNL1        0.0855
     15 C         140.3687  145.4253  159.0266 C.ar    1  UNL1        0.0398
     16 C         140.0663  146.1976  157.7768 C.ar    1  UNL1        0.1000
     17 N         140.8727  145.9599  156.5346 N.ar    1  UNL1       -0.2480
     18 C         142.2483  140.7750  166.6395 C.ar    1  UNL1        0.0881
     19 C         142.8163  141.7054  167.6699 C.ar    1  UNL1        0.0178
     20 C         142.0514  141.9870  168.9292 C.ar    1  UNL1        0.0688
     21 C         140.7186  141.3381  169.1580 C.ar    1  UNL1        0.0134
     22 C         140.1505  140.4076  168.1277 C.ar    1  UNL1        0.0377
     23 C         140.9154  140.1261  166.8684 C.ar    1  UNL1        0.1431
     24 C         142.6194  142.9174  169.9595 C.1     1  UNL1        0.1004
     25 N         143.1874  143.8480  170.9897 N.1     1  UNL1       -0.1908
     26 O         140.3475  139.1956  165.8381 O.3     1  UNL1       -0.4702
     27 C         138.8618  139.0899  165.6606 C.3     1  UNL1        0.2599
     28 C         138.1229  140.1379  164.8823 C.3     1  UNL1        0.0566
     29 C         138.1149  137.9362  166.2615 C.3     1  UNL1        0.4340
     30 F         137.3680  136.7825  166.8624 F       1  UNL1       -0.1664
     31 F         137.3459  138.8867  167.1305 F       1  UNL1       -0.1664
     32 F         138.8839  136.9857  165.3925 F       1  UNL1       -0.1664
@<TRIPOS>BOND
     1    11    12    1
     2    12    13   ar
     3    13    14   ar
     4    14     1    1
     5     1     2   ar
     6     2     3   ar
     7     3     4   ar
     8     4     5   ar
     9     4     6    1
    10     6     7    1
    11     7     8   am
    12     8     9    2
    13     8    18    1
    14    18    19   ar
    15    19    20   ar
    16    20    24    1
    17    24    25    3
    18    20    21   ar
    19    21    22   ar
    20    22    23   ar
    21    23    26    1
    22    26    27    1
    23    27    28    1
    24    27    29    1
    25    29    30    1
    26    29    31    1
    27    29    32    1
    28     7    10    1
    29    14    15   ar
    30    15    16   ar
    31    16    17   ar
    32    17    12   ar
    33     5     1   ar
    34    23    18   ar
    35    10     3    1
@<TRIPOS>MOLECULE
*****
 32 35 0 0 0
SMALL
GASTEIGER

@<TRIPOS>ATOM
      1 N         143.5549  141.3321  160.3616 N.ar    1  UNL1       -0.2286
      2 C         144.2874  140.1706  160.9653 C.ar    1  UNL1        0.0990
      3 C         143.9018  140.0808  162.4121 C.ar    1  UNL1        0.0338
      4 C         142.9310  141.1868  162.7026 C.ar    1  UNL1        0.0981
      5 N         142.7166  141.9601  161.4353 N.ar    1  UNL1       -0.1680
      6 C         142.5453  141.0970  164.1494 C.3     1  UNL1        0.1414
      7 N         143.2779  139.9354  164.7531 N.am    1  UNL1       -0.2660
      8 C         143.1878  139.4817  166.1799 C.2     1  UNL1        0.2525
      9 O         143.9836  138.2969  166.6418 O.2     1  UNL1       -0.2698
     10 C         144.1162  139.3075  163.6793 C.3     1  UNL1        0.1236
     11 C         145.5039  140.7757  155.5770 C.3     1  UNL1        0.0521
     12 C         144.6194  141.5077  156.5424 C.ar    1  UNL1        0.0609
     13 C         144.5294  141.0540  157.9693 C.ar    1  UNL1        0.0339
     14 C         143.6450  141.7859  158.9347 C.ar    1  UNL1        0.0855
     15 C         142.8506  142.9716  158.4733 C.ar    1  UNL1        0.0398
     16 C         142.9406  143.4254  157.0464 C.ar    1  UNL1        0.1000
     17 N         143.8250  142.6935  156.0809 N.ar    1  UNL1       -0.2480
     18 C         142.3021  140.2125  167.1449 C.ar    1  UNL1        0.0881
     19 C         142.8975  141.1798  168.1246 C.ar    1  UNL1        0.0178
     20 C         142.0117  141.9107  169.0897 C.ar    1  UNL1        0.0688
     21 C         140.5306  141.6743  169.0750 C.ar    1  UNL1        0.0134
     22 C         139.9351  140.7070  168.0953 C.ar    1  UNL1        0.0377
     23 C         140.8209  139.9762  167.1303 C.ar    1  UNL1        0.1431
     24 C         142.6073  142.8780  170.0693 C.1     1  UNL1        0.1004
     25 N         143.2030  143.8452  171.0489 N.1     1  UNL1       -0.1908
     26 O         140.2254  139.0089  166.1506 O.3     1  UNL1       -0.4702
     27 C         138.7418  138.9814  165.9311 C.3     1  UNL1        0.2599
     28 C         138.0920  140.0216  165.0676 C.3     1  UNL1        0.0566
     29 C         137.9080  137.9137  166.5752 C.3     1  UNL1        0.4340
     30 F         137.0743  136.8460  167.2192 F       1  UNL1       -0.1664
     31 F         137.2650  138.9457  167.4536 F       1  UNL1       -0.1664
     32 F         138.5511  136.8816  165.6968 F       1  UNL1       -0.1664
@<TRIPOS>BOND
     1    11    12    1
     2    12    13   ar
     3    13    14   ar
     4    14     1    1
     5     1     2   ar
     6     2     3   ar
     7     3     4   ar
     8     4     5   ar
     9     4     6    1
    10     6     7    1
    11     7     8   am
    12     8     9    2
    13     8    18    1
    14    18    19   ar
    15    19    20   ar
    16    20    24    1
    17    24    25    3
    18    20    21   ar
    19    21    22   ar
    20    22    23   ar
    21    23    26    1
    22    26    27    1
    23    27    28    1
    24    27    29    1
    25    29    30    1
    26    29    31    1
    27    29    32    1
    28     7    10    1
    29    14    15   ar
    30    15    16   ar
    31    16    17   ar
    32    17    12   ar
    33     5     1   ar
    34    23    18   ar
    35    10     3    1
@<TRIPOS>MOLECULE
*****
 32 35 0 0 0
SMALL
GASTEIGER

@<TRIPOS>ATOM
      1 N         142.1630  137.3124  158.0446 N.ar    1  UNL1       -0.2286
      2 C         142.9203  137.1745  159.3320 C.ar    1  UNL1        0.0990
      3 C         142.3303  138.1347  160.3219 C.ar    1  UNL1        0.0338
      4 C         141.2084  138.8661  159.6462 C.ar    1  UNL1        0.0981
      5 N         141.1050  138.3579  158.2388 N.ar    1  UNL1       -0.1680
      6 C         140.6185  139.8264  160.6361 C.3     1  UNL1        0.1414
      7 N         141.3758  139.6885  161.9236 N.am    1  UNL1       -0.2660
      8 C         141.1201  140.4605  163.1839 C.2     1  UNL1        0.2525
      9 O         141.9638  140.2131  164.3993 O.2     1  UNL1       -0.2698
     10 C         142.4338  138.6430  161.7294 C.3     1  UNL1        0.1236
     11 C         143.7926  132.9882  155.6685 C.3     1  UNL1        0.0521
     12 C         143.2335  134.3782  155.5961 C.ar    1  UNL1        0.0609
     13 C         142.9778  135.1503  156.8565 C.ar    1  UNL1        0.0339
     14 C         142.4187  136.5404  156.7842 C.ar    1  UNL1        0.0855
     15 C         142.1154  137.1584  155.4515 C.ar    1  UNL1        0.0398
     16 C         142.3711  136.3863  154.1911 C.ar    1  UNL1        0.1000
     17 N         142.9302  134.9962  154.2634 N.ar    1  UNL1       -0.2480
     18 C         140.0206  141.4799  163.2290 C.ar    1  UNL1        0.0881
     19 C         140.2717  142.8758  162.7409 C.ar    1  UNL1        0.0178
     20 C         139.1722  143.8953  162.7860 C.ar    1  UNL1        0.0688
     21 C         137.8218  143.5188  163.3192 C.ar    1  UNL1        0.0134
     22 C         137.5706  142.1228  163.8074 C.ar    1  UNL1        0.0377
     23 C         138.6701  141.1034  163.7623 C.ar    1  UNL1        0.1431
     24 C         139.4235  145.2912  162.2978 C.1     1  UNL1        0.1004
     25 N         139.6746  146.6871  161.8097 N.1     1  UNL1       -0.1908
     26 O         138.4190  139.7075  164.2505 O.3     1  UNL1       -0.4702
     27 C         138.5822  139.3810  165.7054 C.3     1  UNL1        0.2599
     28 C         139.2513  140.3605  166.6234 C.3     1  UNL1        0.0566
     29 C         138.0762  138.0750  166.2423 C.3     1  UNL1        0.4340
     30 F         137.5703  136.7689  166.7791 F       1  UNL1       -0.1664
     31 F         137.3167  138.8075  167.3084 F       1  UNL1       -0.1664
     32 F         138.8357  137.3424  165.1761 F       1  UNL1       -0.1664
@<TRIPOS>BOND
     1    11    12    1
     2    12    13   ar
     3    13    14   ar
     4    14     1    1
     5     1     2   ar
     6     2     3   ar
     7     3     4   ar
     8     4     5   ar
     9     4     6    1
    10     6     7    1
    11     7     8   am
    12     8     9    2
    13     8    18    1
    14    18    19   ar
    15    19    20   ar
    16    20    24    1
    17    24    25    3
    18    20    21   ar
    19    21    22   ar
    20    22    23   ar
    21    23    26    1
    22    26    27    1
    23    27    28    1
    24    27    29    1
    25    29    30    1
    26    29    31    1
    27    29    32    1
    28     7    10    1
    29    14    15   ar
    30    15    16   ar
    31    16    17   ar
    32    17    12   ar
    33     5     1   ar
    34    23    18   ar
    35    10     3    1
@<TRIPOS>MOLECULE
*****
 32 35 0 0 0
SMALL
GASTEIGER

@<TRIPOS>ATOM
      1 N         142.2788  139.7989  159.7509 N.ar    1  UNL1       -0.2286
      2 C         141.5110  141.0853  159.8252 C.ar    1  UNL1        0.0990
      3 C         141.2521  141.3877  161.2714 C.ar    1  UNL1        0.0338
      4 C         141.8599  140.2882  162.0909 C.ar    1  UNL1        0.0981
      5 N         142.4945  139.3063  161.1512 N.ar    1  UNL1       -0.1680
      6 C         141.6011  140.5906  163.5371 C.3     1  UNL1        0.1414
      7 N         140.8332  141.8771  163.6115 N.am    1  UNL1       -0.2660
      8 C         140.3635  142.5523  164.8658 C.2     1  UNL1        0.2525
      9 O         139.6022  143.8422  164.7833 O.2     1  UNL1       -0.2698
     10 C         140.6175  142.3697  162.2111 C.3     1  UNL1        0.1236
     11 C         142.7715  135.5058  156.8653 C.3     1  UNL1        0.0521
     12 C         142.9949  136.9771  157.0537 C.ar    1  UNL1        0.0609
     13 C         142.5252  137.6524  158.3081 C.ar    1  UNL1        0.0339
     14 C         142.7485  139.1237  158.4966 C.ar    1  UNL1        0.0855
     15 C         143.4416  139.9196  157.4307 C.ar    1  UNL1        0.0398
     16 C         143.9113  139.2443  156.1764 C.ar    1  UNL1        0.1000
     17 N         143.6880  137.7730  155.9879 N.ar    1  UNL1       -0.2480
     18 C         140.6550  141.9377  166.2027 C.ar    1  UNL1        0.0881
     19 C         141.8236  142.4191  167.0105 C.ar    1  UNL1        0.0178
     20 C         142.1152  141.8045  168.3475 C.ar    1  UNL1        0.0688
     21 C         141.2382  140.7087  168.8765 C.ar    1  UNL1        0.0134
     22 C         140.0696  140.2273  168.0686 C.ar    1  UNL1        0.0377
     23 C         139.7780  140.8418  166.7318 C.ar    1  UNL1        0.1431
     24 C         143.2839  142.2859  169.1553 C.1     1  UNL1        0.1004
     25 N         144.4524  142.7672  169.9632 N.1     1  UNL1       -0.1908
     26 O         138.6094  140.3605  165.9239 O.3     1  UNL1       -0.4702
     27 C         138.3769  138.8896  165.7439 C.3     1  UNL1        0.2599
     28 C         137.6595  138.1084  166.8046 C.3     1  UNL1        0.0566
     29 C         138.8618  138.1999  164.5033 C.3     1  UNL1        0.4340
     30 F         139.3468  137.5102  163.2628 F       1  UNL1       -0.1664
     31 F         138.3408  139.3329  163.6698 F       1  UNL1       -0.1664
     32 F         139.3829  137.0669  165.3369 F       1  UNL1       -0.1664
@<TRIPOS>BOND
     1    11    12    1
     2    12    13   ar
     3    13    14   ar
     4    14     1    1
     5     1     2   ar
     6     2     3   ar
     7     3     4   ar
     8     4     5   ar
     9     4     6    1
    10     6     7    1
    11     7     8   am
    12     8     9    2
    13     8    18    1
    14    18    19   ar
    15    19    20   ar
    16    20    24    1
    17    24    25    3
    18    20    21   ar
    19    21    22   ar
    20    22    23   ar
    21    23    26    1
    22    26    27    1
    23    27    28    1
    24    27    29    1
    25    29    30    1
    26    29    31    1
    27    29    32    1
    28     7    10    1
    29    14    15   ar
    30    15    16   ar
    31    16    17   ar
    32    17    12   ar
    33     5     1   ar
    34    23    18   ar
    35    10     3    1
@<TRIPOS>MOLECULE
*****
 32 35 0 0 0
SMALL
GASTEIGER

@<TRIPOS>ATOM
      1 N         138.9376  142.1957  159.9924 N.ar    1  UNL1       -0.2286
      2 C         138.1304  141.0367  160.4974 C.ar    1  UNL1        0.0990
      3 C         138.5633  140.7485  161.9044 C.ar    1  UNL1        0.0338
      4 C         139.6380  141.7294  162.2689 C.ar    1  UNL1        0.0981
      5 N         139.8694  142.6238  161.0872 N.ar    1  UNL1       -0.1680
      6 C         140.0708  141.4412  163.6759 C.3     1  UNL1        0.1414
      7 N         139.2636  140.2821  164.1810 N.am    1  UNL1       -0.2660
      8 C         139.3695  139.6603  165.5418 C.2     1  UNL1        0.2525
      9 O         138.4917  138.4999  165.9067 O.2     1  UNL1       -0.2698
     10 C         138.3319  139.8540  163.0860 C.3     1  UNL1        0.1236
     11 C         136.5229  142.6109  155.4102 C.3     1  UNL1        0.0521
     12 C         137.6243  143.0252  156.3403 C.ar    1  UNL1        0.0609
     13 C         137.7303  142.4034  157.7013 C.ar    1  UNL1        0.0339
     14 C         138.8318  142.8176  158.6314 C.ar    1  UNL1        0.0855
     15 C         139.8273  143.8535  158.2007 C.ar    1  UNL1        0.0398
     16 C         139.7214  144.4753  156.8397 C.ar    1  UNL1        0.1000
     17 N         138.6199  144.0611  155.9095 N.ar    1  UNL1       -0.2480
     18 C         140.3531  140.1989  166.5380 C.ar    1  UNL1        0.0881
     19 C         139.9958  141.3906  167.3759 C.ar    1  UNL1        0.0178
     20 C         140.9795  141.9292  168.3721 C.ar    1  UNL1        0.0688
     21 C         142.3204  141.2761  168.5304 C.ar    1  UNL1        0.0134
     22 C         142.6779  140.0843  167.6925 C.ar    1  UNL1        0.0377
     23 C         141.6942  139.5458  166.6963 C.ar    1  UNL1        0.1431
     24 C         140.6220  143.1209  169.2100 C.1     1  UNL1        0.1004
     25 N         140.2644  144.3125  170.0479 N.1     1  UNL1       -0.1908
     26 O         142.0516  138.3541  165.8584 O.3     1  UNL1       -0.4702
     27 C         142.5577  138.5455  164.4594 C.3     1  UNL1        0.2599
     28 C         143.8216  139.3163  164.2179 C.3     1  UNL1        0.0566
     29 C         141.7998  137.9661  163.3018 C.3     1  UNL1        0.4340
     30 F         141.0420  137.3866  162.1443 F       1  UNL1       -0.1664
     31 F         142.2216  139.1237  162.4463 F       1  UNL1       -0.1664
     32 F         141.3780  136.8084  164.1575 F       1  UNL1       -0.1664
@<TRIPOS>BOND
     1    11    12    1
     2    12    13   ar
     3    13    14   ar
     4    14     1    1
     5     1     2   ar
     6     2     3   ar
     7     3     4   ar
     8     4     5   ar
     9     4     6    1
    10     6     7    1
    11     7     8   am
    12     8     9    2
    13     8    18    1
    14    18    19   ar
    15    19    20   ar
    16    20    24    1
    17    24    25    3
    18    20    21   ar
    19    21    22   ar
    20    22    23   ar
    21    23    26    1
    22    26    27    1
    23    27    28    1
    24    27    29    1
    25    29    30    1
    26    29    31    1
    27    29    32    1
    28     7    10    1
    29    14    15   ar
    30    15    16   ar
    31    16    17   ar
    32    17    12   ar
    33     5     1   ar
    34    23    18   ar
    35    10     3    1
@<TRIPOS>MOLECULE
*****
 32 35 0 0 0
SMALL
GASTEIGER

@<TRIPOS>ATOM
      1 N         142.8970  141.6098  159.7116 N.ar    1  UNL1       -0.2286
      2 C         141.6113  142.3822  159.7301 C.ar    1  UNL1        0.0990
      3 C         141.0405  142.2990  161.1147 C.ar    1  UNL1        0.0338
      4 C         141.9734  141.4752  161.9520 C.ar    1  UNL1        0.0981
      5 N         143.1209  141.0493  161.0849 N.ar    1  UNL1       -0.1680
      6 C         141.4026  141.3921  163.3367 C.3     1  UNL1        0.1414
      7 N         140.1168  142.1645  163.3552 N.am    1  UNL1       -0.2660
      8 C         139.2135  142.3447  164.5389 C.2     1  UNL1        0.2525
      9 O         137.9538  143.1482  164.4058 O.2     1  UNL1       -0.2698
     10 C         139.8931  142.7249  161.9819 C.3     1  UNL1        0.1236
     11 C         147.1769  142.9261  157.0754 C.3     1  UNL1        0.0521
     12 C         145.9404  142.0877  157.2096 C.ar    1  UNL1        0.0609
     13 C         145.0370  142.2679  158.3935 C.ar    1  UNL1        0.0339
     14 C         143.8004  141.4296  158.5278 C.ar    1  UNL1        0.0855
     15 C         143.4672  140.4110  157.4783 C.ar    1  UNL1        0.0398
     16 C         144.3707  140.2308  156.2945 C.ar    1  UNL1        0.1000
     17 N         145.6072  141.0691  156.1601 N.ar    1  UNL1       -0.2480
     18 C         139.5698  141.7214  165.8560 C.ar    1  UNL1        0.0881
     19 C         140.4626  142.4523  166.8145 C.ar    1  UNL1        0.0178
     20 C         140.8189  141.8290  168.1316 C.ar    1  UNL1        0.0688
     21 C         140.2823  140.4750  168.4902 C.ar    1  UNL1        0.0134
     22 C         139.3895  139.7441  167.5316 C.ar    1  UNL1        0.0377
     23 C         139.0332  140.3673  166.2146 C.ar    1  UNL1        0.1431
     24 C         141.7117  142.5599  169.0900 C.1     1  UNL1        0.1004
     25 N         142.6046  143.2908  170.0484 N.1     1  UNL1       -0.1908
     26 O         138.1404  139.6365  165.2561 O.3     1  UNL1       -0.4702
     27 C         138.7379  138.7997  164.1639 C.3     1  UNL1        0.2599
     28 C         138.3548  139.0470  162.7349 C.3     1  UNL1        0.0566
     29 C         139.7184  137.7157  164.5006 C.3     1  UNL1        0.4340
     30 F         140.6989  136.6317  164.8375 F       1  UNL1       -0.1664
     31 F         140.6856  138.2806  163.5029 F       1  UNL1       -0.1664
     32 F         138.7511  137.1508  165.4984 F       1  UNL1       -0.1664
@<TRIPOS>BOND
     1    11    12    1
     2    12    13   ar
     3    13    14   ar
     4    14     1    1
     5     1     2   ar
     6     2     3   ar
     7     3     4   ar
     8     4     5   ar
     9     4     6    1
    10     6     7    1
    11     7     8   am
    12     8     9    2
    13     8    18    1
    14    18    19   ar
    15    19    20   ar
    16    20    24    1
    17    24    25    3
    18    20    21   ar
    19    21    22   ar
    20    22    23   ar
    21    23    26    1
    22    26    27    1
    23    27    28    1
    24    27    29    1
    25    29    30    1
    26    29    31    1
    27    29    32    1
    28     7    10    1
    29    14    15   ar
    30    15    16   ar
    31    16    17   ar
    32    17    12   ar
    33     5     1   ar
    34    23    18   ar
    35    10     3    1
@<TRIPOS>MOLECULE
*****
 32 35 0 0 0
SMALL
GASTEIGER

@<TRIPOS>ATOM
      1 N         140.1587  139.3592  160.6672 N.ar    1  UNL1       -0.2286
      2 C         141.3189  138.5657  161.1910 C.ar    1  UNL1        0.0990
      3 C         141.4807  138.8873  162.6472 C.ar    1  UNL1        0.0338
      4 C         140.4205  139.8796  163.0233 C.ar    1  UNL1        0.0981
      5 N         139.6035  140.1713  161.7997 N.ar    1  UNL1       -0.1680
      6 C         140.5823  140.2013  164.4795 C.3     1  UNL1        0.1414
      7 N         141.7426  139.4077  165.0033 N.am    1  UNL1       -0.2660
      8 C         142.2571  139.4235  166.4121 C.2     1  UNL1        0.2525
      9 O         143.4326  138.5720  166.7909 O.2     1  UNL1       -0.2698
     10 C         142.2977  138.5957  163.8709 C.3     1  UNL1        0.1236
     11 C         139.9986  137.1664  155.9592 C.3     1  UNL1        0.0521
     12 C         139.5640  138.2470  156.9043 C.ar    1  UNL1        0.0609
     13 C         140.0786  138.2628  158.3132 C.ar    1  UNL1        0.0339
     14 C         139.6441  139.3435  159.2584 C.ar    1  UNL1        0.0855
     15 C         138.6949  140.4084  158.7947 C.ar    1  UNL1        0.0398
     16 C         138.1803  140.3926  157.3858 C.ar    1  UNL1        0.1000
     17 N         138.6148  139.3119  156.4406 N.ar    1  UNL1       -0.2480
     18 C         141.5964  140.2907  167.4423 C.ar    1  UNL1        0.0881
     19 C         140.4008  139.7845  168.1936 C.ar    1  UNL1        0.0178
     20 C         139.7400  140.6517  169.2239 C.ar    1  UNL1        0.0688
     21 C         140.2747  142.0250  169.5028 C.ar    1  UNL1        0.0134
     22 C         141.4703  142.5313  168.7515 C.ar    1  UNL1        0.0377
     23 C         142.1311  141.6641  167.7213 C.ar    1  UNL1        0.1431
     24 C         138.5445  140.1454  169.9751 C.1     1  UNL1        0.1004
     25 N         137.3490  139.6389  170.7263 N.1     1  UNL1       -0.1908
     26 O         143.3266  142.1703  166.9700 O.3     1  UNL1       -0.4702
     27 C         143.1630  142.7251  165.5860 C.3     1  UNL1        0.2599
     28 C         141.8577  143.3381  165.1731 C.3     1  UNL1        0.0566
     29 C         144.3047  142.6667  164.6148 C.3     1  UNL1        0.4340
     30 F         145.4463  142.6084  163.6436 F       1  UNL1       -0.1664
     31 F         145.0932  143.5993  165.4858 F       1  UNL1       -0.1664
     32 F         143.5161  141.7341  163.7438 F       1  UNL1       -0.1664
@<TRIPOS>BOND
     1    11    12    1
     2    12    13   ar
     3    13    14   ar
     4    14     1    1
     5     1     2   ar
     6     2     3   ar
     7     3     4   ar
     8     4     5   ar
     9     4     6    1
    10     6     7    1
    11     7     8   am
    12     8     9    2
    13     8    18    1
    14    18    19   ar
    15    19    20   ar
    16    20    24    1
    17    24    25    3
    18    20    21   ar
    19    21    22   ar
    20    22    23   ar
    21    23    26    1
    22    26    27    1
    23    27    28    1
    24    27    29    1
    25    29    30    1
    26    29    31    1
    27    29    32    1
    28     7    10    1
    29    14    15   ar
    30    15    16   ar
    31    16    17   ar
    32    17    12   ar
    33     5     1   ar
    34    23    18   ar
    35    10     3    1
@<TRIPOS>MOLECULE
*****
 32 35 0 0 0
SMALL
GASTEIGER

@<TRIPOS>ATOM
      1 N         140.8307  138.1750  157.7333 N.ar    1  UNL1       -0.2286
      2 C         139.8095  139.2699  157.6404 C.ar    1  UNL1        0.0990
      3 C         139.5055  139.7394  159.0322 C.ar    1  UNL1        0.0338
      4 C         140.3388  138.9349  159.9853 C.ar    1  UNL1        0.0981
      5 N         141.1578  137.9680  159.1825 N.ar    1  UNL1       -0.1680
      6 C         140.0348  139.4045  161.3770 C.3     1  UNL1        0.1414
      7 N         139.0136  140.4993  161.2842 N.am    1  UNL1       -0.2660
      8 C         138.4232  141.2545  162.4378 C.2     1  UNL1        0.2525
      9 O         137.4063  142.3289  162.1893 O.2     1  UNL1       -0.2698
     10 C         138.6865  140.7063  159.8349 C.3     1  UNL1        0.1236
     11 C         140.3235  136.0274  153.0291 C.3     1  UNL1        0.0521
     12 C         141.1675  136.3459  154.2274 C.ar    1  UNL1        0.0609
     13 C         140.5772  137.1012  155.3812 C.ar    1  UNL1        0.0339
     14 C         141.4211  137.4198  156.5796 C.ar    1  UNL1        0.0855
     15 C         142.8554  136.9832  156.6243 C.ar    1  UNL1        0.0398
     16 C         143.4458  136.2280  155.4705 C.ar    1  UNL1        0.1000
     17 N         142.6019  135.9094  154.2721 N.ar    1  UNL1       -0.2480
     18 C         138.8496  140.9354  163.8401 C.ar    1  UNL1        0.0881
     19 C         138.0742  139.9403  164.6516 C.ar    1  UNL1        0.0178
     20 C         138.5006  139.6211  166.0539 C.ar    1  UNL1        0.0688
     21 C         139.7023  140.2970  166.6446 C.ar    1  UNL1        0.0134
     22 C         140.4777  141.2921  165.8331 C.ar    1  UNL1        0.0377
     23 C         140.0513  141.6113  164.4309 C.ar    1  UNL1        0.1431
     24 C         137.7252  138.6260  166.8654 C.1     1  UNL1        0.1004
     25 N         136.9498  137.6309  167.6769 N.1     1  UNL1       -0.1908
     26 O         140.8267  142.6063  163.6193 O.3     1  UNL1       -0.4702
     27 C         140.8768  144.0441  164.0439 C.3     1  UNL1        0.2599
     28 C         139.6201  144.7456  164.4665 C.3     1  UNL1        0.0566
     29 C         142.1837  144.7804  164.0460 C.3     1  UNL1        0.4340
     30 F         143.4905  145.5168  164.0480 F       1  UNL1       -0.1664
     31 F         142.8173  143.6536  164.8067 F       1  UNL1       -0.1664
     32 F         141.5500  145.9073  163.2852 F       1  UNL1       -0.1664
@<TRIPOS>BOND
     1    11    12    1
     2    12    13   ar
     3    13    14   ar
     4    14     1    1
     5     1     2   ar
     6     2     3   ar
     7     3     4   ar
     8     4     5   ar
     9     4     6    1
    10     6     7    1
    11     7     8   am
    12     8     9    2
    13     8    18    1
    14    18    19   ar
    15    19    20   ar
    16    20    24    1
    17    24    25    3
    18    20    21   ar
    19    21    22   ar
    20    22    23   ar
    21    23    26    1
    22    26    27    1
    23    27    28    1
    24    27    29    1
    25    29    30    1
    26    29    31    1
    27    29    32    1
    28     7    10    1
    29    14    15   ar
    30    15    16   ar
    31    16    17   ar
    32    17    12   ar
    33     5     1   ar
    34    23    18   ar
    35    10     3    1
