@<TRIPOS>MOLECULE
*****
 29 32 0 0 0
SMALL
GASTEIGER

@<TRIPOS>ATOM
      1 C         138.2670  141.6406  162.6039 C.2     1  UNL1        0.2525
      2 O         137.4444  142.8889  162.4820 O.2     1  UNL1       -0.2698
      3 N         138.5981  140.8380  161.3807 N.am    1  UNL1       -0.2660
      4 C         139.4065  139.5750  161.3470 C.3     1  UNL1        0.1236
      5 C         139.4869  139.1141  159.9218 C.ar    1  UNL1        0.0338
      6 C         140.0362  138.0486  159.0202 C.ar    1  UNL1        0.0991
      7 N         139.6170  138.3681  157.6158 N.ar    1  UNL1       -0.2271
      8 N         138.8085  139.6312  157.6496 N.ar    1  UNL1       -0.1680
      9 C         138.7281  140.0922  159.0747 C.ar    1  UNL1        0.0981
     10 C         138.1788  141.1577  159.9764 C.3     1  UNL1        0.1414
     11 C         139.9480  137.5657  156.3926 C.ar    1  UNL1        0.1042
     12 C         139.0150  137.5691  155.2181 C.ar    1  UNL1        0.1181
     13 N         139.3460  136.7666  153.9948 N.ar    1  UNL1       -0.2384
     14 C         140.6101  135.9606  153.9461 C.ar    1  UNL1        0.1285
     15 C         141.5432  135.9571  155.1206 C.ar    1  UNL1        0.1607
     16 F         142.8073  135.1511  155.0718 F       1  UNL1       -0.2025
     17 C         141.2121  136.7596  156.3438 C.ar    1  UNL1        0.0520
     18 C         140.0058  141.7940  164.5283 C.ar    1  UNL1        0.1427
     19 C         140.4973  141.3481  165.8735 C.ar    1  UNL1        0.0377
     20 C         139.7417  140.3031  166.6396 C.ar    1  UNL1        0.0134
     21 C         138.4945  139.7038  166.0605 C.ar    1  UNL1        0.0688
     22 C         138.0029  140.1497  164.7152 C.ar    1  UNL1        0.0178
     23 C         138.7586  141.1948  163.9491 C.ar    1  UNL1        0.0881
     24 C         137.7388  138.6588  166.8266 C.1     1  UNL1        0.1004
     25 N         136.9832  137.6138  167.5926 N.1     1  UNL1       -0.1908
     26 O         140.7615  142.8390  163.7622 O.3     1  UNL1       -0.4790
     27 C         141.6580  145.2774  163.7377 C.3     1  UNL1        0.0472
     28 C         140.5901  144.2896  164.1035 C.3     1  UNL1        0.1661
     29 C         139.3507  144.7523  164.8104 C.3     1  UNL1        0.0472
@<TRIPOS>BOND
     1    27    28    1
     2    28    29    1
     3    28    26    1
     4    26    18    1
     5    18    19   ar
     6    19    20   ar
     7    20    21   ar
     8    21    24    1
     9    24    25    3
    10    21    22   ar
    11    22    23   ar
    12    23     1    1
    13     1     2    2
    14     1     3   am
    15     3     4    1
    16     4     5    1
    17     5     6   ar
    18     6     7   ar
    19     7    11    1
    20    11    12   ar
    21    12    13   ar
    22    13    14   ar
    23    14    15   ar
    24    15    16    1
    25    15    17   ar
    26     7     8   ar
    27     8     9   ar
    28     9    10    1
    29    23    18   ar
    30    10     3    1
    31     9     5   ar
    32    17    11   ar
@<TRIPOS>MOLECULE
*****
 29 32 0 0 0
SMALL
GASTEIGER

@<TRIPOS>ATOM
      1 C         138.8828  141.4295  162.7857 C.2     1  UNL1        0.2525
      2 O         137.8799  142.4798  162.4099 O.2     1  UNL1       -0.2698
      3 N         139.6606  140.7189  161.7180 N.am    1  UNL1       -0.2660
      4 C         140.6913  139.6520  161.9402 C.3     1  UNL1        0.1236
      5 C         141.2119  139.2242  160.6001 C.ar    1  UNL1        0.0338
      6 C         142.1707  138.3004  159.9092 C.ar    1  UNL1        0.0991
      7 N         142.0543  138.5319  158.4317 N.ar    1  UNL1       -0.2271
      8 N         141.0236  139.5988  158.2095 N.ar    1  UNL1       -0.1680
      9 C         140.5029  140.0267  159.5496 C.ar    1  UNL1        0.0981
     10 C         139.5441  140.9504  160.2405 C.3     1  UNL1        0.1414
     11 C         142.8321  137.8214  157.3640 C.ar    1  UNL1        0.1042
     12 C         143.6636  138.6066  156.3935 C.ar    1  UNL1        0.1181
     13 N         144.4414  137.8960  155.3257 N.ar    1  UNL1       -0.2384
     14 C         144.3877  136.4002  155.2285 C.ar    1  UNL1        0.1285
     15 C         143.5561  135.6149  156.1991 C.ar    1  UNL1        0.1607
     16 F         143.5024  134.1189  156.1018 F       1  UNL1       -0.2025
     17 C         142.7784  136.3254  157.2668 C.ar    1  UNL1        0.0520
     18 C         140.1614  141.8133  165.0147 C.ar    1  UNL1        0.1427
     19 C         140.3864  141.4736  166.4582 C.ar    1  UNL1        0.0377
     20 C         139.5579  140.4106  167.1166 C.ar    1  UNL1        0.0134
     21 C         138.5043  139.6871  166.3313 C.ar    1  UNL1        0.0688
     22 C         138.2793  140.0269  164.8877 C.ar    1  UNL1        0.0178
     23 C         139.1078  141.0899  164.2293 C.ar    1  UNL1        0.0881
     24 C         137.6758  138.6241  166.9897 C.1     1  UNL1        0.1004
     25 N         136.8472  137.5610  167.6481 N.1     1  UNL1       -0.1908
     26 O         140.9899  142.8764  164.3563 O.3     1  UNL1       -0.4790
     27 C         139.2006  144.6551  164.9761 C.3     1  UNL1        0.0472
     28 C         140.5042  144.2952  164.3272 C.3     1  UNL1        0.1661
     29 C         141.3221  145.3541  163.6492 C.3     1  UNL1        0.0472
@<TRIPOS>BOND
     1    27    28    1
     2    28    29    1
     3    28    26    1
     4    26    18    1
     5    18    19   ar
     6    19    20   ar
     7    20    21   ar
     8    21    24    1
     9    24    25    3
    10    21    22   ar
    11    22    23   ar
    12    23     1    1
    13     1     2    2
    14     1     3   am
    15     3     4    1
    16     4     5    1
    17     5     6   ar
    18     6     7   ar
    19     7    11    1
    20    11    12   ar
    21    12    13   ar
    22    13    14   ar
    23    14    15   ar
    24    15    16    1
    25    15    17   ar
    26     7     8   ar
    27     8     9   ar
    28     9    10    1
    29    23    18   ar
    30    10     3    1
    31     9     5   ar
    32    17    11   ar
@<TRIPOS>MOLECULE
*****
 29 32 0 0 0
SMALL
GASTEIGER

@<TRIPOS>ATOM
      1 C         142.7830  142.6696  165.7585 C.2     1  UNL1        0.2525
      2 O         144.1685  143.0602  166.1802 O.2     1  UNL1       -0.2698
      3 N         142.2894  143.0215  164.3864 N.am    1  UNL1       -0.2660
      4 C         140.9355  142.6991  163.8269 C.3     1  UNL1        0.1236
      5 C         140.8724  143.2359  162.4277 C.ar    1  UNL1        0.0338
      6 C         139.9967  143.3684  161.2171 C.ar    1  UNL1        0.0991
      7 N         140.7703  144.1045  160.1636 N.ar    1  UNL1       -0.2271
      8 N         142.1242  144.4269  160.7232 N.ar    1  UNL1       -0.1680
      9 C         142.1873  143.8901  162.1224 C.ar    1  UNL1        0.0981
     10 C         143.0630  143.7576  163.3330 C.3     1  UNL1        0.1414
     11 C         140.2767  144.4564  158.7917 C.ar    1  UNL1        0.1042
     12 C         140.5489  145.8174  158.2228 C.ar    1  UNL1        0.1181
     13 N         140.0553  146.1693  156.8508 N.ar    1  UNL1       -0.2384
     14 C         139.2895  145.1602  156.0475 C.ar    1  UNL1        0.1285
     15 C         139.0174  143.7991  156.6163 C.ar    1  UNL1        0.1607
     16 F         138.2516  142.7899  155.8130 F       1  UNL1       -0.2025
     17 C         139.5109  143.4472  157.9883 C.ar    1  UNL1        0.0520
     18 C         141.5805  140.4792  166.4701 C.ar    1  UNL1        0.1427
     19 C         140.6886  139.7368  167.4206 C.ar    1  UNL1        0.0377
     20 C         140.1073  140.4423  168.6098 C.ar    1  UNL1        0.0134
     21 C         140.4178  141.8903  168.8486 C.ar    1  UNL1        0.0688
     22 C         141.3098  142.6327  167.8981 C.ar    1  UNL1        0.0178
     23 C         141.8911  141.9272  166.7089 C.ar    1  UNL1        0.0881
     24 C         139.8365  142.5957  170.0379 C.1     1  UNL1        0.1004
     25 N         139.2551  143.3012  171.2271 N.1     1  UNL1       -0.1908
     26 O         142.1618  139.7737  165.2809 O.3     1  UNL1       -0.4790
     27 C         144.6082  139.6111  164.4213 C.3     1  UNL1        0.0472
     28 C         143.5305  139.1656  165.3647 C.3     1  UNL1        0.1661
     29 C         143.8213  138.1119  166.3919 C.3     1  UNL1        0.0472
@<TRIPOS>BOND
     1    27    28    1
     2    28    29    1
     3    28    26    1
     4    26    18    1
     5    18    19   ar
     6    19    20   ar
     7    20    21   ar
     8    21    24    1
     9    24    25    3
    10    21    22   ar
    11    22    23   ar
    12    23     1    1
    13     1     2    2
    14     1     3   am
    15     3     4    1
    16     4     5    1
    17     5     6   ar
    18     6     7   ar
    19     7    11    1
    20    11    12   ar
    21    12    13   ar
    22    13    14   ar
    23    14    15   ar
    24    15    16    1
    25    15    17   ar
    26     7     8   ar
    27     8     9   ar
    28     9    10    1
    29    23    18   ar
    30    10     3    1
    31     9     5   ar
    32    17    11   ar
@<TRIPOS>MOLECULE
*****
 29 32 0 0 0
SMALL
GASTEIGER

@<TRIPOS>ATOM
      1 C         138.2427  141.6387  162.6451 C.2     1  UNL1        0.2525
      2 O         137.4119  142.8816  162.5235 O.2     1  UNL1       -0.2698
      3 N         138.5814  140.8402  161.4213 N.am    1  UNL1       -0.2660
      4 C         139.3985  139.5828  161.3872 C.3     1  UNL1        0.1236
      5 C         139.4845  139.1245  159.9615 C.ar    1  UNL1        0.0338
      6 C         140.0427  138.0640  159.0593 C.ar    1  UNL1        0.0991
      7 N         139.6238  138.3828  157.6547 N.ar    1  UNL1       -0.2271
      8 N         138.8067  139.6404  157.6888 N.ar    1  UNL1       -0.1680
      9 C         138.7207  140.0987  159.1145 C.ar    1  UNL1        0.0981
     10 C         138.1625  141.1591  160.0167 C.3     1  UNL1        0.1414
     11 C         139.9624  137.5844  156.4309 C.ar    1  UNL1        0.1042
     12 C         141.2369  136.7950  156.3793 C.ar    1  UNL1        0.1181
     13 N         141.5756  135.9966  155.1555 N.ar    1  UNL1       -0.2384
     14 C         140.6398  135.9875  153.9832 C.ar    1  UNL1        0.1285
     15 C         139.3653  136.7770  154.0348 C.ar    1  UNL1        0.1607
     16 F         138.4295  136.7679  152.8624 F       1  UNL1       -0.2025
     17 C         139.0267  137.5754  155.2585 C.ar    1  UNL1        0.0520
     18 C         139.9801  141.7971  164.5704 C.ar    1  UNL1        0.1427
     19 C         140.4722  141.3526  165.9159 C.ar    1  UNL1        0.0377
     20 C         139.7192  140.3053  166.6815 C.ar    1  UNL1        0.0134
     21 C         138.4741  139.7024  166.1017 C.ar    1  UNL1        0.0688
     22 C         137.9819  140.1470  164.7562 C.ar    1  UNL1        0.0178
     23 C         138.7349  141.1942  163.9905 C.ar    1  UNL1        0.0881
     24 C         137.7211  138.6551  166.8673 C.1     1  UNL1        0.1004
     25 N         136.9681  137.6078  167.6329 N.1     1  UNL1       -0.1908
     26 O         140.7331  142.8443  163.8048 O.3     1  UNL1       -0.4790
     27 C         141.5940  145.2948  163.7399 C.3     1  UNL1        0.0472
     28 C         140.5495  144.2950  164.1392 C.3     1  UNL1        0.1661
     29 C         139.3214  144.7459  164.8730 C.3     1  UNL1        0.0472
@<TRIPOS>BOND
     1    27    28    1
     2    28    29    1
     3    28    26    1
     4    26    18    1
     5    18    19   ar
     6    19    20   ar
     7    20    21   ar
     8    21    24    1
     9    24    25    3
    10    21    22   ar
    11    22    23   ar
    12    23     1    1
    13     1     2    2
    14     1     3   am
    15     3     4    1
    16     4     5    1
    17     5     6   ar
    18     6     7   ar
    19     7    11    1
    20    11    12   ar
    21    12    13   ar
    22    13    14   ar
    23    14    15   ar
    24    15    16    1
    25    15    17   ar
    26     7     8   ar
    27     8     9   ar
    28     9    10    1
    29    23    18   ar
    30    10     3    1
    31     9     5   ar
    32    17    11   ar
@<TRIPOS>MOLECULE
*****
 29 32 0 0 0
SMALL
GASTEIGER

@<TRIPOS>ATOM
      1 C         139.6822  142.6070  164.4536 C.2     1  UNL1        0.2525
      2 O         138.5036  143.5285  164.3451 O.2     1  UNL1       -0.2698
      3 N         140.5692  142.3807  163.2653 N.am    1  UNL1       -0.2660
      4 C         141.7773  141.4926  163.2232 C.3     1  UNL1        0.1236
      5 C         142.3585  141.5659  161.8423 C.ar    1  UNL1        0.0338
      6 C         143.4643  141.0623  160.9629 C.ar    1  UNL1        0.0991
      7 N         143.2990  141.6843  159.6080 N.ar    1  UNL1       -0.2271
      8 N         142.0908  142.5725  159.6501 N.ar    1  UNL1       -0.1680
      9 C         141.5096  142.4992  161.0310 C.ar    1  UNL1        0.0981
     10 C         140.4038  143.0029  161.9104 C.3     1  UNL1        0.1414
     11 C         144.1858  141.4581  158.4197 C.ar    1  UNL1        0.1042
     12 C         144.0279  140.2176  157.5913 C.ar    1  UNL1        0.1181
     13 N         144.9149  139.9913  156.4029 N.ar    1  UNL1       -0.2384
     14 C         145.9597  141.0055  156.0430 C.ar    1  UNL1        0.1285
     15 C         146.1177  142.2461  156.8714 C.ar    1  UNL1        0.1607
     16 F         147.1626  143.2603  156.5114 F       1  UNL1       -0.2025
     17 C         145.2308  142.4723  158.0597 C.ar    1  UNL1        0.0520
     18 C         139.2303  140.6612  166.1148 C.ar    1  UNL1        0.1427
     19 C         139.5220  139.9661  167.4116 C.ar    1  UNL1        0.0377
     20 C         140.5573  140.5216  168.3441 C.ar    1  UNL1        0.0134
     21 C         141.3010  141.7723  167.9797 C.ar    1  UNL1        0.0688
     22 C         141.0092  142.4674  166.6828 C.ar    1  UNL1        0.0178
     23 C         139.9739  141.9119  165.7504 C.ar    1  UNL1        0.0881
     24 C         142.3363  142.3279  168.9122 C.1     1  UNL1        0.1004
     25 N         143.3716  142.8834  169.8446 N.1     1  UNL1       -0.1908
     26 O         138.1949  140.1056  165.1824 O.3     1  UNL1       -0.4790
     27 C         139.0989  137.7492  164.5660 C.3     1  UNL1        0.0472
     28 C         138.5848  139.0942  164.1456 C.3     1  UNL1        0.1661
     29 C         138.4605  139.4277  162.6885 C.3     1  UNL1        0.0472
@<TRIPOS>BOND
     1    27    28    1
     2    28    29    1
     3    28    26    1
     4    26    18    1
     5    18    19   ar
     6    19    20   ar
     7    20    21   ar
     8    21    24    1
     9    24    25    3
    10    21    22   ar
    11    22    23   ar
    12    23     1    1
    13     1     2    2
    14     1     3   am
    15     3     4    1
    16     4     5    1
    17     5     6   ar
    18     6     7   ar
    19     7    11    1
    20    11    12   ar
    21    12    13   ar
    22    13    14   ar
    23    14    15   ar
    24    15    16    1
    25    15    17   ar
    26     7     8   ar
    27     8     9   ar
    28     9    10    1
    29    23    18   ar
    30    10     3    1
    31     9     5   ar
    32    17    11   ar
@<TRIPOS>MOLECULE
*****
 29 32 0 0 0
SMALL
GASTEIGER

@<TRIPOS>ATOM
      1 C         141.2574  140.5397  163.2516 C.2     1  UNL1        0.2525
      2 O         142.1426  140.3191  164.4422 O.2     1  UNL1       -0.2698
      3 N         141.4924  139.7654  161.9885 N.am    1  UNL1       -0.2660
      4 C         140.6938  139.8780  160.7238 C.3     1  UNL1        0.1236
      5 C         141.2752  138.9247  159.7222 C.ar    1  UNL1        0.0338
      6 C         141.1410  138.4051  158.3215 C.ar    1  UNL1        0.0991
      7 N         142.2159  137.3823  158.1014 N.ar    1  UNL1       -0.2271
      8 N         143.0144  137.2697  159.3662 N.ar    1  UNL1       -0.1680
      9 C         142.4331  138.2230  160.3679 C.ar    1  UNL1        0.0981
     10 C         142.5673  138.7425  161.7686 C.3     1  UNL1        0.1414
     11 C         142.4509  136.6080  156.8385 C.ar    1  UNL1        0.1042
     12 C         141.9376  137.1328  155.5304 C.ar    1  UNL1        0.1181
     13 N         142.1726  136.3585  154.2674 N.ar    1  UNL1       -0.2384
     14 C         142.9210  135.0593  154.3124 C.ar    1  UNL1        0.1285
     15 C         143.4344  134.5345  155.6206 C.ar    1  UNL1        0.1607
     16 F         144.1829  133.2353  155.6656 F       1  UNL1       -0.2025
     17 C         143.1994  135.3088  156.8835 C.ar    1  UNL1        0.0520
     18 C         138.8541  141.1709  164.0106 C.ar    1  UNL1        0.1427
     19 C         137.7339  142.1658  164.0829 C.ar    1  UNL1        0.0377
     20 C         137.8966  143.5244  163.4685 C.ar    1  UNL1        0.0134
     21 C         139.1796  143.8882  162.7818 C.ar    1  UNL1        0.0688
     22 C         140.2999  142.8932  162.7095 C.ar    1  UNL1        0.0178
     23 C         140.1371  141.5346  163.3239 C.ar    1  UNL1        0.0881
     24 C         139.3423  145.2469  162.1673 C.1     1  UNL1        0.1004
     25 N         139.5051  146.6056  161.5529 N.1     1  UNL1       -0.1908
     26 O         138.6913  139.8122  164.6251 O.3     1  UNL1       -0.4790
     27 C         139.6594  140.4914  166.9384 C.3     1  UNL1        0.0472
     28 C         138.7245  139.6546  166.1164 C.3     1  UNL1        0.1661
     29 C         137.8227  138.6602  166.7856 C.3     1  UNL1        0.0472
@<TRIPOS>BOND
     1    27    28    1
     2    28    29    1
     3    28    26    1
     4    26    18    1
     5    18    19   ar
     6    19    20   ar
     7    20    21   ar
     8    21    24    1
     9    24    25    3
    10    21    22   ar
    11    22    23   ar
    12    23     1    1
    13     1     2    2
    14     1     3   am
    15     3     4    1
    16     4     5    1
    17     5     6   ar
    18     6     7   ar
    19     7    11    1
    20    11    12   ar
    21    12    13   ar
    22    13    14   ar
    23    14    15   ar
    24    15    16    1
    25    15    17   ar
    26     7     8   ar
    27     8     9   ar
    28     9    10    1
    29    23    18   ar
    30    10     3    1
    31     9     5   ar
    32    17    11   ar
@<TRIPOS>MOLECULE
*****
 29 32 0 0 0
SMALL
GASTEIGER

@<TRIPOS>ATOM
      1 C         142.2230  139.1159  164.5986 C.2     1  UNL1        0.2525
      2 O         142.2042  137.6841  165.0452 O.2     1  UNL1       -0.2698
      3 N         142.6726  139.4626  163.2101 N.am    1  UNL1       -0.2660
      4 C         142.7444  140.8420  162.6253 C.3     1  UNL1        0.1236
      5 C         143.2455  140.7226  161.2165 C.ar    1  UNL1        0.0338
      6 C         143.5996  141.5013  159.9844 C.ar    1  UNL1        0.0991
      7 N         144.0563  140.5295  158.9370 N.ar    1  UNL1       -0.2271
      8 N         143.9845  139.1500  159.5220 N.ar    1  UNL1       -0.1680
      9 C         143.4834  139.2694  160.9307 C.ar    1  UNL1        0.0981
     10 C         143.1293  138.4907  162.1629 C.3     1  UNL1        0.1414
     11 C         144.5059  140.8761  157.5487 C.ar    1  UNL1        0.1042
     12 C         143.8746  140.2034  156.3660 C.ar    1  UNL1        0.1181
     13 N         144.3241  140.5500  154.9775 N.ar    1  UNL1       -0.2384
     14 C         145.4051  141.5694  154.7718 C.ar    1  UNL1        0.1285
     15 C         146.0365  142.2422  155.9546 C.ar    1  UNL1        0.1607
     16 F         147.1175  143.2616  155.7488 F       1  UNL1       -0.2025
     17 C         145.5869  141.8955  157.3429 C.ar    1  UNL1        0.0520
     18 C         140.4128  140.7812  165.4355 C.ar    1  UNL1        0.1427
     19 C         139.9821  141.8663  166.3772 C.ar    1  UNL1        0.0377
     20 C         140.9305  142.3713  167.4238 C.ar    1  UNL1        0.0134
     21 C         142.3098  141.7912  167.5287 C.ar    1  UNL1        0.0688
     22 C         142.7406  140.7060  166.5869 C.ar    1  UNL1        0.0178
     23 C         141.7922  140.2010  165.5403 C.ar    1  UNL1        0.0881
     24 C         143.2583  142.2962  168.5753 C.1     1  UNL1        0.1004
     25 N         144.2068  142.8012  169.6219 N.1     1  UNL1       -0.1908
     26 O         139.4644  140.2762  164.3889 O.3     1  UNL1       -0.4790
     27 C         138.3464  138.4613  165.8742 C.3     1  UNL1        0.0472
     28 C         138.8400  138.9201  164.5341 C.3     1  UNL1        0.1661
     29 C         138.7093  138.0228  163.3393 C.3     1  UNL1        0.0472
@<TRIPOS>BOND
     1    27    28    1
     2    28    29    1
     3    28    26    1
     4    26    18    1
     5    18    19   ar
     6    19    20   ar
     7    20    21   ar
     8    21    24    1
     9    24    25    3
    10    21    22   ar
    11    22    23   ar
    12    23     1    1
    13     1     2    2
    14     1     3   am
    15     3     4    1
    16     4     5    1
    17     5     6   ar
    18     6     7   ar
    19     7    11    1
    20    11    12   ar
    21    12    13   ar
    22    13    14   ar
    23    14    15   ar
    24    15    16    1
    25    15    17   ar
    26     7     8   ar
    27     8     9   ar
    28     9    10    1
    29    23    18   ar
    30    10     3    1
    31     9     5   ar
    32    17    11   ar
@<TRIPOS>MOLECULE
*****
 29 32 0 0 0
SMALL
GASTEIGER

@<TRIPOS>ATOM
      1 C         144.5574  141.7337  163.5274 C.2     1  UNL1        0.2525
      2 O         146.0499  141.8774  163.4866 O.2     1  UNL1       -0.2698
      3 N         143.7221  142.2599  162.3980 N.am    1  UNL1       -0.2660
      4 C         142.2270  142.1893  162.2998 C.3     1  UNL1        0.1236
      5 C         141.8162  142.8348  161.0097 C.ar    1  UNL1        0.0338
      6 C         140.6383  143.1902  160.1516 C.ar    1  UNL1        0.0991
      7 N         141.1515  143.8795  158.9221 N.ar    1  UNL1       -0.2271
      8 N         142.6467  143.9501  159.0204 N.ar    1  UNL1       -0.1680
      9 C         143.0574  143.3045  160.3105 C.ar    1  UNL1        0.0981
     10 C         144.2354  142.9492  161.1686 C.3     1  UNL1        0.1414
     11 C         140.3163  144.4056  157.7928 C.ar    1  UNL1        0.1042
     12 C         139.4299  143.4755  157.0188 C.ar    1  UNL1        0.1181
     13 N         138.5946  144.0016  155.8894 N.ar    1  UNL1       -0.2384
     14 C         138.6458  145.4580  155.5340 C.ar    1  UNL1        0.1285
     15 C         139.5323  146.3883  156.3081 C.ar    1  UNL1        0.1607
     16 F         139.5834  147.8447  155.9526 F       1  UNL1       -0.2025
     17 C         140.3675  145.8621  157.4374 C.ar    1  UNL1        0.0520
     18 C         143.7677  139.5701  164.7296 C.ar    1  UNL1        0.1427
     19 C         143.1104  138.9003  165.8998 C.ar    1  UNL1        0.0377
     20 C         142.5855  139.7243  167.0379 C.ar    1  UNL1        0.0134
     21 C         142.7178  141.2181  167.0060 C.ar    1  UNL1        0.0688
     22 C         143.3751  141.8879  165.8357 C.ar    1  UNL1        0.0178
     23 C         143.9001  141.0639  164.6975 C.ar    1  UNL1        0.0881
     24 C         142.1928  142.0421  168.1442 C.1     1  UNL1        0.1004
     25 N         141.6679  142.8660  169.2824 N.1     1  UNL1       -0.1908
     26 O         144.2927  138.7461  163.5914 O.3     1  UNL1       -0.4790
     27 C         142.0633  137.9443  162.5250 C.3     1  UNL1        0.0472
     28 C         143.4422  138.5159  162.3774 C.3     1  UNL1        0.1661
     29 C         143.9709  138.8573  161.0158 C.3     1  UNL1        0.0472
@<TRIPOS>BOND
     1    27    28    1
     2    28    29    1
     3    28    26    1
     4    26    18    1
     5    18    19   ar
     6    19    20   ar
     7    20    21   ar
     8    21    24    1
     9    24    25    3
    10    21    22   ar
    11    22    23   ar
    12    23     1    1
    13     1     2    2
    14     1     3   am
    15     3     4    1
    16     4     5    1
    17     5     6   ar
    18     6     7   ar
    19     7    11    1
    20    11    12   ar
    21    12    13   ar
    22    13    14   ar
    23    14    15   ar
    24    15    16    1
    25    15    17   ar
    26     7     8   ar
    27     8     9   ar
    28     9    10    1
    29    23    18   ar
    30    10     3    1
    31     9     5   ar
    32    17    11   ar
@<TRIPOS>MOLECULE
*****
 29 32 0 0 0
SMALL
GASTEIGER

@<TRIPOS>ATOM
      1 C         139.3627  139.9731  165.5581 C.2     1  UNL1        0.2525
      2 O         138.4181  138.8461  165.8538 O.2     1  UNL1       -0.2698
      3 N         139.3506  140.6273  164.2083 N.am    1  UNL1       -0.2660
      4 C         140.2316  141.7591  163.7692 C.3     1  UNL1        0.1236
      5 C         139.8809  142.0957  162.3501 C.ar    1  UNL1        0.0338
      6 C         140.2086  143.0033  161.2017 C.ar    1  UNL1        0.0991
      7 N         139.3135  142.6405  160.0540 N.ar    1  UNL1       -0.2271
      8 N         138.4324  141.5087  160.4932 N.ar    1  UNL1       -0.1680
      9 C         138.7832  141.1720  161.9123 C.ar    1  UNL1        0.0981
     10 C         138.4554  140.2644  163.0607 C.3     1  UNL1        0.1414
     11 C         139.3014  143.2946  158.7043 C.ar    1  UNL1        0.1042
     12 C         138.4507  142.7307  157.6051 C.ar    1  UNL1        0.1181
     13 N         138.4386  143.3848  156.2553 N.ar    1  UNL1       -0.2384
     14 C         139.2772  144.6029  156.0047 C.ar    1  UNL1        0.1285
     15 C         140.1280  145.1669  157.1039 C.ar    1  UNL1        0.1607
     16 F         140.9667  146.3851  156.8532 F       1  UNL1       -0.2025
     17 C         140.1401  144.5128  158.4536 C.ar    1  UNL1        0.0520
     18 C         141.6228  139.7323  166.8167 C.ar    1  UNL1        0.1427
     19 C         142.5795  140.2053  167.8708 C.ar    1  UNL1        0.0377
     20 C         142.2327  141.3918  168.7204 C.ar    1  UNL1        0.0134
     21 C         140.9293  142.1055  168.5160 C.ar    1  UNL1        0.0688
     22 C         139.9727  141.6325  167.4618 C.ar    1  UNL1        0.0178
     23 C         140.3194  140.4460  166.6122 C.ar    1  UNL1        0.0881
     24 C         140.5826  143.2921  169.3656 C.1     1  UNL1        0.1004
     25 N         140.2359  144.4786  170.2152 N.1     1  UNL1       -0.1908
     26 O         141.9696  138.5458  165.9671 O.3     1  UNL1       -0.4790
     27 C         143.8044  139.6232  164.4763 C.3     1  UNL1        0.0472
     28 C         142.5961  138.7460  164.6190 C.3     1  UNL1        0.1661
     29 C         142.0141  138.0690  163.4136 C.3     1  UNL1        0.0472
@<TRIPOS>BOND
     1    27    28    1
     2    28    29    1
     3    28    26    1
     4    26    18    1
     5    18    19   ar
     6    19    20   ar
     7    20    21   ar
     8    21    24    1
     9    24    25    3
    10    21    22   ar
    11    22    23   ar
    12    23     1    1
    13     1     2    2
    14     1     3   am
    15     3     4    1
    16     4     5    1
    17     5     6   ar
    18     6     7   ar
    19     7    11    1
    20    11    12   ar
    21    12    13   ar
    22    13    14   ar
    23    14    15   ar
    24    15    16    1
    25    15    17   ar
    26     7     8   ar
    27     8     9   ar
    28     9    10    1
    29    23    18   ar
    30    10     3    1
    31     9     5   ar
    32    17    11   ar
