@<TRIPOS>MOLECULE
*****
 26 27 0 0 0
SMALL
GASTEIGER

@<TRIPOS>ATOM
      1 N         140.7471  142.2275  166.2381 N.3     1  UNL1       -0.2727
      2 C         142.1320  142.3807  165.6827 C.3     1  UNL1        0.0721
      3 C         142.4157  143.4364  164.6556 C.3     1  UNL1        0.0191
      4 C         141.3144  144.3389  164.1837 C.3     1  UNL1        0.0224
      5 C         139.9295  144.1857  164.7391 C.3     1  UNL1        0.0191
      6 C         139.6458  143.1300  165.7663 C.3     1  UNL1        0.0721
      7 C         140.4635  141.1718  167.2653 C.3     1  UNL1        0.0720
      8 C         140.3415  141.5470  168.7125 C.3     1  UNL1        0.0160
      9 C         139.4257  140.7728  169.6134 C.3     1  UNL1        0.0014
     10 C         141.1355  142.6965  169.2587 C.3     1  UNL1        0.0013
     11 C         140.4355  143.9430  169.7128 C.3     1  UNL1        0.0000
     12 C         143.2683  141.3548  169.8918 C.3     1  UNL1        0.0000
     13 C         142.6295  142.5995  169.3509 C.3     1  UNL1        0.0000
     14 C         141.5980  145.3945  163.1566 C.3     1  UNL1        0.0897
     15 N         141.6253  145.0359  161.7003 N.am    1  UNL1       -0.3009
     16 C         140.4746  145.4105  160.8140 C.2     1  UNL1        0.2459
     17 O         139.2966  146.1436  161.3838 O.2     1  UNL1       -0.2701
     18 H         142.3985  144.5547  161.3263 H       1  UNL1        0.1497
     19 C         140.5020  145.0518  159.3577 C.ar    1  UNL1        0.0550
     20 C         140.7826  143.6393  158.9383 C.ar    1  UNL1        0.0160
     21 C         140.8100  143.2807  157.4820 C.ar    1  UNL1        0.0587
     22 CL        141.0907  141.8681  157.0626 Cl      1  UNL1       -0.0822
     23 C         140.5567  144.3346  156.4452 C.ar    1  UNL1        0.0228
     24 C         140.2760  145.7472  156.8646 C.ar    1  UNL1        0.0587
     25 CL        140.0227  146.8012  155.8278 Cl      1  UNL1       -0.0822
     26 C         140.2487  146.1058  158.3209 C.ar    1  UNL1        0.0160
@<TRIPOS>BOND
     1    12    13    1
     2    13    10    1
     3    10    11    1
     4    10     8    1
     5     8     9    1
     6     8     7    1
     7     7     1    1
     8     1     2    1
     9     2     3    1
    10     3     4    1
    11     4    14    1
    12    14    15    1
    13    15    16   am
    14    16    17    2
    15    16    19    1
    16    19    20   ar
    17    20    21   ar
    18    21    22    1
    19    21    23   ar
    20    23    24   ar
    21    24    25    1
    22    24    26   ar
    23     4     5    1
    24     5     6    1
    25     6     1    1
    26    26    19   ar
    27    15    18    1
@<TRIPOS>MOLECULE
*****
 26 27 0 0 0
SMALL
GASTEIGER

@<TRIPOS>ATOM
      1 N         138.6994  140.7212  163.2470 N.3     1  UNL1       -0.2727
      2 C         140.0720  141.0186  162.7203 C.3     1  UNL1        0.0721
      3 C         140.4100  142.4009  162.2459 C.3     1  UNL1        0.0191
      4 C         139.3755  143.4857  162.2980 C.3     1  UNL1        0.0224
      5 C         138.0029  143.1883  162.8247 C.3     1  UNL1        0.0191
      6 C         137.6648  141.8060  163.2992 C.3     1  UNL1        0.0721
      7 C         138.3613  139.3390  163.7214 C.3     1  UNL1        0.0720
      8 C         139.1325  138.7244  164.8517 C.3     1  UNL1        0.0160
      9 C         140.2257  137.7382  164.5649 C.3     1  UNL1        0.0014
     10 C         138.8105  139.0961  166.2689 C.3     1  UNL1        0.0013
     11 C         137.6265  138.4818  166.9548 C.3     1  UNL1        0.0000
     12 C         139.8942  141.4519  166.4300 C.3     1  UNL1        0.0000
     13 C         139.6726  140.0822  166.9999 C.3     1  UNL1        0.0000
     14 C         139.7135  144.8680  161.8236 C.3     1  UNL1        0.0897
     15 N         139.7180  145.1769  160.3558 N.am    1  UNL1       -0.3009
     16 C         141.0005  145.1154  159.5803 C.2     1  UNL1        0.2459
     17 O         142.2786  144.7450  160.2726 O.2     1  UNL1       -0.2701
     18 H         138.8792  145.4201  159.9014 H       1  UNL1        0.1497
     19 C         141.0050  145.4244  158.1124 C.ar    1  UNL1        0.0550
     20 C         142.0709  144.8486  157.2280 C.ar    1  UNL1        0.0160
     21 C         142.0753  145.1576  155.7601 C.ar    1  UNL1        0.0587
     22 CL        143.1412  144.5818  154.8757 Cl      1  UNL1       -0.0822
     23 C         141.0138  146.0424  155.1768 C.ar    1  UNL1        0.0228
     24 C         139.9479  146.6183  156.0613 C.ar    1  UNL1        0.0587
     25 CL        138.8864  147.5031  155.4779 Cl      1  UNL1       -0.0822
     26 C         139.9435  146.3093  157.5291 C.ar    1  UNL1        0.0160
@<TRIPOS>BOND
     1    12    13    1
     2    13    10    1
     3    10    11    1
     4    10     8    1
     5     8     9    1
     6     8     7    1
     7     7     1    1
     8     1     2    1
     9     2     3    1
    10     3     4    1
    11     4    14    1
    12    14    15    1
    13    15    16   am
    14    16    17    2
    15    16    19    1
    16    19    20   ar
    17    20    21   ar
    18    21    22    1
    19    21    23   ar
    20    23    24   ar
    21    24    25    1
    22    24    26   ar
    23     4     5    1
    24     5     6    1
    25     6     1    1
    26    26    19   ar
    27    15    18    1
@<TRIPOS>MOLECULE
*****
 26 27 0 0 0
SMALL
GASTEIGER

@<TRIPOS>ATOM
      1 N         139.7167  141.4616  166.1169 N.3     1  UNL1       -0.2727
      2 C         140.3919  142.7534  165.7631 C.3     1  UNL1        0.0721
      3 C         139.8916  143.5694  164.6081 C.3     1  UNL1        0.0191
      4 C         138.7162  143.0935  163.8070 C.3     1  UNL1        0.0224
      5 C         138.0410  141.8017  164.1608 C.3     1  UNL1        0.0191
      6 C         138.5412  140.9857  165.3158 C.3     1  UNL1        0.0721
      7 C         140.2169  140.6456  167.2719 C.3     1  UNL1        0.0720
      8 C         140.1953  141.2167  168.6587 C.3     1  UNL1        0.0160
      9 C         139.2904  140.6261  169.6990 C.3     1  UNL1        0.0014
     10 C         141.0787  142.3785  169.0053 C.3     1  UNL1        0.0013
     11 C         140.4900  143.6076  169.6319 C.3     1  UNL1        0.0000
     12 C         143.5333  142.3775  169.8568 C.3     1  UNL1        0.0000
     13 C         142.5508  142.3110  168.7253 C.3     1  UNL1        0.0000
     14 C         138.2159  143.9095  162.6520 C.3     1  UNL1        0.0897
     15 N         138.9437  143.8784  161.3408 N.am    1  UNL1       -0.3009
     16 C         140.0251  144.8791  161.0592 C.2     1  UNL1        0.2459
     17 O         140.3786  145.9109  162.0889 O.2     1  UNL1       -0.2701
     18 H         138.7116  143.2012  160.6649 H       1  UNL1        0.1497
     19 C         140.7528  144.8480  159.7479 C.ar    1  UNL1        0.0550
     20 C         140.2595  145.6732  158.5966 C.ar    1  UNL1        0.0160
     21 C         140.9873  145.6420  157.2853 C.ar    1  UNL1        0.0587
     22 CL        140.4939  146.4672  156.1339 Cl      1  UNL1       -0.0822
     23 C         142.2084  144.7857  157.1254 C.ar    1  UNL1        0.0228
     24 C         142.7017  143.9605  158.2768 C.ar    1  UNL1        0.0587
     25 CL        143.9228  143.1041  158.1170 Cl      1  UNL1       -0.0822
     26 C         141.9739  143.9916  159.5880 C.ar    1  UNL1        0.0160
@<TRIPOS>BOND
     1    12    13    1
     2    13    10    1
     3    10    11    1
     4    10     8    1
     5     8     9    1
     6     8     7    1
     7     7     1    1
     8     1     2    1
     9     2     3    1
    10     3     4    1
    11     4    14    1
    12    14    15    1
    13    15    16   am
    14    16    17    2
    15    16    19    1
    16    19    20   ar
    17    20    21   ar
    18    21    22    1
    19    21    23   ar
    20    23    24   ar
    21    24    25    1
    22    24    26   ar
    23     4     5    1
    24     5     6    1
    25     6     1    1
    26    26    19   ar
    27    15    18    1
@<TRIPOS>MOLECULE
*****
 26 27 0 0 0
SMALL
GASTEIGER

@<TRIPOS>ATOM
      1 N         141.1755  141.6481  166.1035 N.3     1  UNL1       -0.2727
      2 C         142.4478  141.9535  165.3701 C.3     1  UNL1        0.0721
      3 C         142.5365  143.1695  164.4963 C.3     1  UNL1        0.0191
      4 C         141.3529  144.0801  164.3560 C.3     1  UNL1        0.0224
      5 C         140.0806  143.7748  165.0894 C.3     1  UNL1        0.0191
      6 C         139.9919  142.5588  165.9632 C.3     1  UNL1        0.0721
      7 C         141.0869  140.4321  166.9773 C.3     1  UNL1        0.0720
      8 C         139.7546  139.9744  167.4926 C.3     1  UNL1        0.0160
      9 C         139.3387  140.3060  168.8951 C.3     1  UNL1        0.0014
     10 C         138.8382  139.1850  166.6053 C.3     1  UNL1        0.0013
     11 C         137.6053  138.5494  167.1762 C.3     1  UNL1        0.0000
     12 C         139.1100  137.6746  164.5089 C.3     1  UNL1        0.0000
     13 C         139.1547  139.0313  165.1472 C.3     1  UNL1        0.0000
     14 C         141.4416  145.2962  163.4822 C.3     1  UNL1        0.0897
     15 N         141.8308  145.1569  162.0404 N.am    1  UNL1       -0.3009
     16 C         140.7732  145.1349  160.9768 C.2     1  UNL1        0.2459
     17 O         139.3265  145.2521  161.3552 O.2     1  UNL1       -0.2701
     18 H         142.7803  145.0799  161.7920 H       1  UNL1        0.1497
     19 C         141.1625  144.9956  159.5349 C.ar    1  UNL1        0.0550
     20 C         140.4679  145.8150  158.4880 C.ar    1  UNL1        0.0160
     21 C         140.8572  145.6757  157.0460 C.ar    1  UNL1        0.0587
     22 CL        140.1625  146.4951  155.9991 Cl      1  UNL1       -0.0822
     23 C         141.9410  144.7170  156.6510 C.ar    1  UNL1        0.0228
     24 C         142.6357  143.8975  157.6980 C.ar    1  UNL1        0.0587
     25 CL        143.7195  142.9388  157.3030 Cl      1  UNL1       -0.0822
     26 C         142.2464  144.0368  159.1399 C.ar    1  UNL1        0.0160
@<TRIPOS>BOND
     1    12    13    1
     2    13    10    1
     3    10    11    1
     4    10     8    1
     5     8     9    1
     6     8     7    1
     7     7     1    1
     8     1     2    1
     9     2     3    1
    10     3     4    1
    11     4    14    1
    12    14    15    1
    13    15    16   am
    14    16    17    2
    15    16    19    1
    16    19    20   ar
    17    20    21   ar
    18    21    22    1
    19    21    23   ar
    20    23    24   ar
    21    24    25    1
    22    24    26   ar
    23     4     5    1
    24     5     6    1
    25     6     1    1
    26    26    19   ar
    27    15    18    1
@<TRIPOS>MOLECULE
*****
 26 27 0 0 0
SMALL
GASTEIGER

@<TRIPOS>ATOM
      1 N         141.8348  139.1545  166.3985 N.3     1  UNL1       -0.2727
      2 C         140.4073  139.6124  166.4473 C.3     1  UNL1        0.0721
      3 C         139.4106  139.0664  165.4682 C.3     1  UNL1        0.0191
      4 C         139.8415  138.0624  164.4405 C.3     1  UNL1        0.0224
      5 C         141.2690  137.6045  164.3917 C.3     1  UNL1        0.0191
      6 C         142.2657  138.1505  165.3708 C.3     1  UNL1        0.0721
      7 C         142.8314  139.7006  167.3776 C.3     1  UNL1        0.0720
      8 C         142.3649  140.2662  168.6861 C.3     1  UNL1        0.0160
      9 C         141.8690  139.3498  169.7651 C.3     1  UNL1        0.0014
     10 C         142.3943  141.7483  168.9157 C.3     1  UNL1        0.0013
     11 C         143.5654  142.3764  169.6113 C.3     1  UNL1        0.0000
     12 C         140.4380  143.3740  169.4450 C.3     1  UNL1        0.0000
     13 C         141.2525  142.6022  168.4496 C.3     1  UNL1        0.0000
     14 C         138.8448  137.5164  163.4615 C.3     1  UNL1        0.0897
     15 N         139.0151  137.7763  161.9940 N.am    1  UNL1       -0.3009
     16 C         138.5493  139.0740  161.4032 C.2     1  UNL1        0.2459
     17 O         137.9132  140.1117  162.2798 O.2     1  UNL1       -0.2701
     18 H         139.4326  137.0952  161.4187 H       1  UNL1        0.1497
     19 C         138.7196  139.3339  159.9357 C.ar    1  UNL1        0.0550
     20 C         139.7139  138.5378  159.1435 C.ar    1  UNL1        0.0160
     21 C         139.8842  138.7977  157.6759 C.ar    1  UNL1        0.0587
     22 CL        140.8785  138.0017  156.8837 Cl      1  UNL1       -0.0822
     23 C         139.0602  139.8537  157.0007 C.ar    1  UNL1        0.0228
     24 C         138.0658  140.6498  157.7931 C.ar    1  UNL1        0.0587
     25 CL        137.2418  141.7058  157.1178 Cl      1  UNL1       -0.0822
     26 C         137.8956  140.3899  159.2605 C.ar    1  UNL1        0.0160
@<TRIPOS>BOND
     1    12    13    1
     2    13    10    1
     3    10    11    1
     4    10     8    1
     5     8     9    1
     6     8     7    1
     7     7     1    1
     8     1     2    1
     9     2     3    1
    10     3     4    1
    11     4    14    1
    12    14    15    1
    13    15    16   am
    14    16    17    2
    15    16    19    1
    16    19    20   ar
    17    20    21   ar
    18    21    22    1
    19    21    23   ar
    20    23    24   ar
    21    24    25    1
    22    24    26   ar
    23     4     5    1
    24     5     6    1
    25     6     1    1
    26    26    19   ar
    27    15    18    1
@<TRIPOS>MOLECULE
*****
 26 27 0 0 0
SMALL
GASTEIGER

@<TRIPOS>ATOM
      1 N         139.6540  142.3523  165.2057 N.3     1  UNL1       -0.2727
      2 C         140.9790  143.0310  165.0223 C.3     1  UNL1        0.0721
      3 C         141.0998  144.2012  164.0917 C.3     1  UNL1        0.0191
      4 C         139.8957  144.6927  163.3445 C.3     1  UNL1        0.0224
      5 C         138.5707  144.0140  163.5278 C.3     1  UNL1        0.0191
      6 C         138.4498  142.8438  164.4584 C.3     1  UNL1        0.0721
      7 C         139.5331  141.1821  166.1363 C.3     1  UNL1        0.0720
      8 C         140.5445  140.9828  167.2259 C.3     1  UNL1        0.0160
      9 C         141.7507  140.1252  166.9820 C.3     1  UNL1        0.0014
     10 C         140.3497  141.6412  168.5596 C.3     1  UNL1        0.0013
     11 C         139.5150  140.9725  169.6114 C.3     1  UNL1        0.0000
     12 C         140.3815  143.8944  169.8527 C.3     1  UNL1        0.0000
     13 C         140.9896  142.9682  168.8415 C.3     1  UNL1        0.0000
     14 C         140.0166  145.8629  162.4139 C.3     1  UNL1        0.0897
     15 N         139.6178  145.7210  160.9748 N.am    1  UNL1       -0.3009
     16 C         140.5958  145.1779  159.9756 C.2     1  UNL1        0.2459
     17 O         141.9726  144.7766  160.4153 O.2     1  UNL1       -0.2701
     18 H         138.7142  145.9844  160.6862 H       1  UNL1        0.1497
     19 C         140.1970  145.0361  158.5365 C.ar    1  UNL1        0.0550
     20 C         140.2962  146.2126  157.6113 C.ar    1  UNL1        0.0160
     21 C         139.8974  146.0707  156.1722 C.ar    1  UNL1        0.0587
     22 CL        139.9966  147.2472  155.2470 Cl      1  UNL1       -0.0822
     23 C         139.3994  144.7524  155.6584 C.ar    1  UNL1        0.0228
     24 C         139.3002  143.5759  156.5837 C.ar    1  UNL1        0.0587
     25 CL        138.8022  142.2576  156.0699 Cl      1  UNL1       -0.0822
     26 C         139.6990  143.7178  158.0227 C.ar    1  UNL1        0.0160
@<TRIPOS>BOND
     1    12    13    1
     2    13    10    1
     3    10    11    1
     4    10     8    1
     5     8     9    1
     6     8     7    1
     7     7     1    1
     8     1     2    1
     9     2     3    1
    10     3     4    1
    11     4    14    1
    12    14    15    1
    13    15    16   am
    14    16    17    2
    15    16    19    1
    16    19    20   ar
    17    20    21   ar
    18    21    22    1
    19    21    23   ar
    20    23    24   ar
    21    24    25    1
    22    24    26   ar
    23     4     5    1
    24     5     6    1
    25     6     1    1
    26    26    19   ar
    27    15    18    1
@<TRIPOS>MOLECULE
*****
 26 27 0 0 0
SMALL
GASTEIGER

@<TRIPOS>ATOM
      1 N         142.4093  141.6736  166.0629 N.3     1  UNL1       -0.2727
      2 C         143.5907  142.4897  165.6289 C.3     1  UNL1        0.0721
      3 C         143.3972  143.6603  164.7112 C.3     1  UNL1        0.0191
      4 C         142.0223  144.0149  164.2275 C.3     1  UNL1        0.0224
      5 C         140.8410  143.1989  164.6615 C.3     1  UNL1        0.0191
      6 C         141.0345  142.0282  165.5792 C.3     1  UNL1        0.0721
      7 C         142.6028  140.5030  166.9806 C.3     1  UNL1        0.0720
      8 C         142.3773  140.6606  168.4551 C.3     1  UNL1        0.0160
      9 C         142.0618  139.4606  169.2981 C.3     1  UNL1        0.0014
     10 C         142.4672  142.0182  169.0867 C.3     1  UNL1        0.0013
     11 C         143.7773  142.5081  169.6285 C.3     1  UNL1        0.0000
     12 C         140.2699  142.6923  170.2981 C.3     1  UNL1        0.0000
     13 C         141.2469  142.8859  169.1765 C.3     1  UNL1        0.0000
     14 C         141.8288  145.1856  163.3098 C.3     1  UNL1        0.0897
     15 N         142.0894  145.0375  161.8401 N.am    1  UNL1       -0.3009
     16 C         140.9618  145.1765  160.8607 C.2     1  UNL1        0.2459
     17 O         139.5736  145.4636  161.3511 O.2     1  UNL1       -0.2701
     18 H         143.0005  144.8491  161.5183 H       1  UNL1        0.1497
     19 C         141.2225  145.0285  159.3909 C.ar    1  UNL1        0.0550
     20 C         140.4774  145.8814  158.4074 C.ar    1  UNL1        0.0160
     21 C         140.7381  145.7334  156.9376 C.ar    1  UNL1        0.0587
     22 CL        139.9930  146.5863  155.9542 Cl      1  UNL1       -0.0822
     23 C         141.7438  144.7323  156.4514 C.ar    1  UNL1        0.0228
     24 C         142.4889  143.8793  157.4350 C.ar    1  UNL1        0.0587
     25 CL        143.4946  142.8783  156.9488 Cl      1  UNL1       -0.0822
     26 C         142.2282  144.0274  158.9047 C.ar    1  UNL1        0.0160
@<TRIPOS>BOND
     1    12    13    1
     2    13    10    1
     3    10    11    1
     4    10     8    1
     5     8     9    1
     6     8     7    1
     7     7     1    1
     8     1     2    1
     9     2     3    1
    10     3     4    1
    11     4    14    1
    12    14    15    1
    13    15    16   am
    14    16    17    2
    15    16    19    1
    16    19    20   ar
    17    20    21   ar
    18    21    22    1
    19    21    23   ar
    20    23    24   ar
    21    24    25    1
    22    24    26   ar
    23     4     5    1
    24     5     6    1
    25     6     1    1
    26    26    19   ar
    27    15    18    1
@<TRIPOS>MOLECULE
*****
 26 27 0 0 0
SMALL
GASTEIGER

@<TRIPOS>ATOM
      1 N         140.1877  141.6073  165.8722 N.3     1  UNL1       -0.2727
      2 C         141.6164  141.7471  165.4373 C.3     1  UNL1        0.0721
      3 C         142.0437  142.9427  164.6384 C.3     1  UNL1        0.0191
      4 C         141.0422  143.9984  164.2744 C.3     1  UNL1        0.0224
      5 C         139.6135  143.8585  164.7093 C.3     1  UNL1        0.0191
      6 C         139.1862  142.6630  165.5082 C.3     1  UNL1        0.0721
      7 C         139.7605  140.4118  166.6710 C.3     1  UNL1        0.0720
      8 C         138.9579  139.3237  166.0216 C.3     1  UNL1        0.0160
      9 C         137.8115  138.6959  166.7578 C.3     1  UNL1        0.0014
     10 C         139.3015  138.8632  164.6360 C.3     1  UNL1        0.0013
     11 C         140.3361  137.7958  164.4354 C.3     1  UNL1        0.0000
     12 C         139.3521  140.4167  162.5541 C.3     1  UNL1        0.0000
     13 C         138.6107  139.4702  163.4510 C.3     1  UNL1        0.0000
     14 C         141.4694  145.1939  163.4756 C.3     1  UNL1        0.0897
     15 N         141.8578  145.0339  162.0356 N.am    1  UNL1       -0.3009
     16 C         140.8135  145.1246  160.9627 C.2     1  UNL1        0.2459
     17 O         139.3808  145.3752  161.3297 O.2     1  UNL1       -0.2701
     18 H         142.7980  144.8694  161.7947 H       1  UNL1        0.1497
     19 C         141.2018  144.9646  159.5226 C.ar    1  UNL1        0.0550
     20 C         142.2811  143.9957  159.1401 C.ar    1  UNL1        0.0160
     21 C         142.6695  143.8357  157.7000 C.ar    1  UNL1        0.0587
     22 CL        143.7487  142.8668  157.3175 Cl      1  UNL1       -0.0822
     23 C         141.9786  144.6447  156.6426 C.ar    1  UNL1        0.0228
     24 C         140.8993  145.6136  157.0252 C.ar    1  UNL1        0.0587
     25 CL        140.2083  146.4226  155.9678 Cl      1  UNL1       -0.0822
     26 C         140.5109  145.7736  158.4652 C.ar    1  UNL1        0.0160
@<TRIPOS>BOND
     1    12    13    1
     2    13    10    1
     3    10    11    1
     4    10     8    1
     5     8     9    1
     6     8     7    1
     7     7     1    1
     8     1     2    1
     9     2     3    1
    10     3     4    1
    11     4    14    1
    12    14    15    1
    13    15    16   am
    14    16    17    2
    15    16    19    1
    16    19    20   ar
    17    20    21   ar
    18    21    22    1
    19    21    23   ar
    20    23    24   ar
    21    24    25    1
    22    24    26   ar
    23     4     5    1
    24     5     6    1
    25     6     1    1
    26    26    19   ar
    27    15    18    1
@<TRIPOS>MOLECULE
*****
 26 27 0 0 0
SMALL
GASTEIGER

@<TRIPOS>ATOM
      1 N         139.8072  141.6561  166.4370 N.3     1  UNL1       -0.2727
      2 C         140.0903  143.1275  166.3697 C.3     1  UNL1        0.0721
      3 C         139.5623  143.9413  165.2256 C.3     1  UNL1        0.0191
      4 C         138.7512  143.2837  164.1488 C.3     1  UNL1        0.0224
      5 C         138.4681  141.8122  164.2160 C.3     1  UNL1        0.0191
      6 C         138.9961  140.9984  165.3601 C.3     1  UNL1        0.0721
      7 C         140.3351  140.8422  167.5811 C.3     1  UNL1        0.0720
      8 C         141.7998  140.5306  167.6668 C.3     1  UNL1        0.0160
      9 C         142.6038  140.3543  166.4128 C.3     1  UNL1        0.0014
     10 C         142.4607  140.3954  169.0066 C.3     1  UNL1        0.0013
     11 C         142.2837  139.1391  169.8068 C.3     1  UNL1        0.0000
     12 C         142.6448  142.7804  170.0202 C.3     1  UNL1        0.0000
     13 C         143.2986  141.5164  169.5461 C.3     1  UNL1        0.0000
     14 C         138.2233  144.0975  163.0047 C.3     1  UNL1        0.0897
     15 N         138.8975  144.0356  161.6662 N.am    1  UNL1       -0.3009
     16 C         140.1138  144.8720  161.3996 C.2     1  UNL1        0.2459
     17 O         140.6558  145.7704  162.4715 O.2     1  UNL1       -0.2701
     18 H         138.5417  143.4459  160.9626 H       1  UNL1        0.1497
     19 C         140.7880  144.8100  160.0610 C.ar    1  UNL1        0.0550
     20 C         141.9993  143.9461  159.8707 C.ar    1  UNL1        0.0160
     21 C         142.6735  143.8842  158.5321 C.ar    1  UNL1        0.0587
     22 CL        143.8849  143.0203  158.3418 Cl      1  UNL1       -0.0822
     23 C         142.1363  144.6861  157.3840 C.ar    1  UNL1        0.0228
     24 C         140.9249  145.5501  157.5744 C.ar    1  UNL1        0.0587
     25 CL        140.3877  146.3520  156.4262 Cl      1  UNL1       -0.0822
     26 C         140.2508  145.6120  158.9129 C.ar    1  UNL1        0.0160
@<TRIPOS>BOND
     1    12    13    1
     2    13    10    1
     3    10    11    1
     4    10     8    1
     5     8     9    1
     6     8     7    1
     7     7     1    1
     8     1     2    1
     9     2     3    1
    10     3     4    1
    11     4    14    1
    12    14    15    1
    13    15    16   am
    14    16    17    2
    15    16    19    1
    16    19    20   ar
    17    20    21   ar
    18    21    22    1
    19    21    23   ar
    20    23    24   ar
    21    24    25    1
    22    24    26   ar
    23     4     5    1
    24     5     6    1
    25     6     1    1
    26    26    19   ar
    27    15    18    1
