@<TRIPOS>MOLECULE
*****
 35 38 0 0 0
SMALL
GASTEIGER

@<TRIPOS>ATOM
      1 C         141.2068  140.9606  166.6255 C.3     1  UNL1        0.1078
      2 C         140.2655  139.8396  166.2982 C.ar    1  UNL1       -0.0108
      3 C         140.6662  138.7897  165.3047 C.ar    1  UNL1       -0.0035
      4 C         139.7249  137.6686  164.9774 C.ar    1  UNL1       -0.0003
      5 C         138.3828  137.5975  165.6436 C.ar    1  UNL1       -0.0000
      6 C         137.9820  138.6475  166.6370 C.ar    1  UNL1       -0.0003
      7 C         138.9234  139.7686  166.9643 C.ar    1  UNL1       -0.0035
      8 C         140.3964  141.8904  165.7718 C.ar    1  UNL1       -0.0108
      9 C         140.0720  141.5173  164.3556 C.ar    1  UNL1       -0.0035
     10 C         139.2616  142.4471  163.5019 C.ar    1  UNL1       -0.0003
     11 C         138.7755  143.7499  164.0645 C.ar    1  UNL1       -0.0000
     12 C         139.0999  144.1230  165.4806 C.ar    1  UNL1       -0.0003
     13 C         139.9103  143.1932  166.3343 C.ar    1  UNL1       -0.0035
     14 C         140.7766  140.6087  169.8777 C.3     1  UNL1        0.1149
     15 N         141.7483  139.9387  168.9520 N.am    1  UNL1       -0.2755
     16 C         142.5587  139.0090  169.8056 C.3     1  UNL1        0.1149
     17 C         142.0172  140.0309  167.4791 C.2     1  UNL1        0.2325
     18 O         143.0966  139.1933  166.8600 O.2     1  UNL1       -0.2742
     19 C         142.1482  142.0817  166.9528 C.3     1  UNL1        0.0341
     20 C         143.3655  142.3101  166.1067 C.3     1  UNL1        0.0732
     21 N         143.2157  142.7472  164.6796 N.3     1  UNL1       -0.2725
     22 C         142.8231  144.1603  164.3653 C.3     1  UNL1        0.0748
     23 C         142.6733  144.5973  162.9382 C.3     1  UNL1        0.0485
     24 C         142.9162  143.6212  161.8255 C.3     1  UNL1        0.1096
     25 O         142.5656  144.8427  161.0286 O.3     1  UNL1       -0.3826
     26 C         143.3088  142.2081  162.1398 C.3     1  UNL1        0.0485
     27 C         143.4586  141.7711  163.5668 C.3     1  UNL1        0.0748
     28 H         142.3774  145.5790  161.6314 H       1  UNL1        0.2107
     29 C         143.0373  143.0694  160.4359 C.ar    1  UNL1        0.0019
     30 C         141.8281  142.9915  159.5518 C.ar    1  UNL1       -0.0012
     31 C         141.9493  142.4396  158.1622 C.ar    1  UNL1        0.0111
     32 C         143.2797  141.9656  157.6569 C.ar    1  UNL1        0.0577
     33 CL        143.4008  141.4138  156.2673 Cl      1  UNL1       -0.0822
     34 C         144.4889  142.0435  158.5411 C.ar    1  UNL1        0.0111
     35 C         144.3677  142.5954  159.9305 C.ar    1  UNL1       -0.0012
@<TRIPOS>BOND
     1    14    15    1
     2    15    16    1
     3    15    17   am
     4    17    18    2
     5    17     1    1
     6     1    19    1
     7    19    20    1
     8    20    21    1
     9    21    22    1
    10    22    23    1
    11    23    24    1
    12    24    25    1
    13    24    29    1
    14    29    30   ar
    15    30    31   ar
    16    31    32   ar
    17    32    33    1
    18    32    34   ar
    19    34    35   ar
    20    24    26    1
    21    26    27    1
    22     1     2    1
    23     2     3   ar
    24     3     4   ar
    25     4     5   ar
    26     5     6   ar
    27     6     7   ar
    28     1     8    1
    29     8     9   ar
    30     9    10   ar
    31    10    11   ar
    32    11    12   ar
    33    12    13   ar
    34    27    21    1
    35     7     2   ar
    36    13     8   ar
    37    35    29   ar
    38    25    28    1
@<TRIPOS>MOLECULE
*****
 35 38 0 0 0
SMALL
GASTEIGER

@<TRIPOS>ATOM
      1 C         141.5568  141.0715  166.6960 C.3     1  UNL1        0.1078
      2 C         142.6883  140.2361  166.1749 C.ar    1  UNL1       -0.0108
      3 C         143.5216  140.7320  165.0305 C.ar    1  UNL1       -0.0035
      4 C         144.6531  139.8965  164.5094 C.ar    1  UNL1       -0.0003
      5 C         144.9514  138.5651  165.1326 C.ar    1  UNL1       -0.0000
      6 C         144.1180  138.0692  166.2770 C.ar    1  UNL1       -0.0003
      7 C         142.9865  138.9047  166.7981 C.ar    1  UNL1       -0.0035
      8 C         140.5857  140.2561  165.8948 C.ar    1  UNL1       -0.0108
      9 C         139.4390  139.5712  166.5775 C.ar    1  UNL1       -0.0035
     10 C         138.4679  138.7558  165.7763 C.ar    1  UNL1       -0.0003
     11 C         138.6434  138.6253  164.2923 C.ar    1  UNL1       -0.0000
     12 C         139.7900  139.3102  163.6096 C.ar    1  UNL1       -0.0003
     13 C         140.7612  140.1257  164.4108 C.ar    1  UNL1       -0.0035
     14 C         142.0702  140.6614  169.9293 C.3     1  UNL1        0.1149
     15 N         142.6932  141.6271  168.9654 N.am    1  UNL1       -0.2755
     16 C         143.6643  142.4425  169.7666 C.3     1  UNL1        0.1149
     17 C         142.5279  141.8869  167.4973 C.2     1  UNL1        0.2325
     18 O         143.3337  142.9622  166.8305 O.2     1  UNL1       -0.2742
     19 C         140.4253  141.9071  167.2172 C.3     1  UNL1        0.0341
     20 C         140.1245  143.2366  166.5914 C.3     1  UNL1        0.0732
     21 N         139.6925  143.3097  165.1567 N.3     1  UNL1       -0.2725
     22 C         138.2779  142.9809  164.7817 C.3     1  UNL1        0.0748
     23 C         137.8460  143.0540  163.3471 C.3     1  UNL1        0.0485
     24 C         138.8287  143.4560  162.2876 C.3     1  UNL1        0.1096
     25 O         137.6081  143.2408  161.4427 O.3     1  UNL1       -0.3826
     26 C         140.2433  143.7848  162.6626 C.3     1  UNL1        0.0485
     27 C         140.6752  143.7117  164.0971 C.3     1  UNL1        0.0748
     28 H         136.8679  142.9687  162.0074 H       1  UNL1        0.2107
     29 C         139.3875  143.7831  160.9345 C.ar    1  UNL1        0.0019
     30 C         140.2062  145.0251  160.7414 C.ar    1  UNL1       -0.0012
     31 C         140.7649  145.3521  159.3882 C.ar    1  UNL1        0.0111
     32 C         140.5049  144.4373  158.2283 C.ar    1  UNL1        0.0577
     33 CL        141.0636  144.7645  156.8752 Cl      1  UNL1       -0.0822
     34 C         139.6861  143.1954  158.4215 C.ar    1  UNL1        0.0111
     35 C         139.1274  142.8683  159.7745 C.ar    1  UNL1       -0.0012
@<TRIPOS>BOND
     1    14    15    1
     2    15    16    1
     3    15    17   am
     4    17    18    2
     5    17     1    1
     6     1    19    1
     7    19    20    1
     8    20    21    1
     9    21    22    1
    10    22    23    1
    11    23    24    1
    12    24    25    1
    13    24    29    1
    14    29    30   ar
    15    30    31   ar
    16    31    32   ar
    17    32    33    1
    18    32    34   ar
    19    34    35   ar
    20    24    26    1
    21    26    27    1
    22     1     2    1
    23     2     3   ar
    24     3     4   ar
    25     4     5   ar
    26     5     6   ar
    27     6     7   ar
    28     1     8    1
    29     8     9   ar
    30     9    10   ar
    31    10    11   ar
    32    11    12   ar
    33    12    13   ar
    34    27    21    1
    35     7     2   ar
    36    13     8   ar
    37    35    29   ar
    38    25    28    1
@<TRIPOS>MOLECULE
*****
 35 38 0 0 0
SMALL
GASTEIGER

@<TRIPOS>ATOM
      1 C         141.2875  141.5612  165.3742 C.3     1  UNL1        0.1078
      2 C         140.0667  142.3697  165.0486 C.ar    1  UNL1       -0.0108
      3 C         138.9643  141.7667  164.2295 C.ar    1  UNL1       -0.0035
      4 C         137.7435  142.5753  163.9039 C.ar    1  UNL1       -0.0003
      5 C         137.6252  143.9868  164.3975 C.ar    1  UNL1       -0.0000
      6 C         138.7277  144.5898  165.2167 C.ar    1  UNL1       -0.0003
      7 C         139.9485  143.7812  165.5422 C.ar    1  UNL1       -0.0035
      8 C         142.1013  142.4180  164.4504 C.ar    1  UNL1       -0.0108
      9 C         143.2792  143.1820  164.9789 C.ar    1  UNL1       -0.0035
     10 C         144.0930  144.0388  164.0551 C.ar    1  UNL1       -0.0003
     11 C         143.7291  144.1318  162.6029 C.ar    1  UNL1       -0.0000
     12 C         142.5514  143.3680  162.0744 C.ar    1  UNL1       -0.0003
     13 C         141.7374  142.5110  162.9982 C.ar    1  UNL1       -0.0035
     14 C         140.9694  142.1343  168.6077 C.3     1  UNL1        0.1149
     15 N         140.3882  141.0447  167.7563 N.am    1  UNL1       -0.2755
     16 C         139.5743  140.1879  168.6801 C.3     1  UNL1        0.1149
     17 C         140.4736  140.7043  166.2979 C.2     1  UNL1        0.2325
     18 O         139.7451  139.5070  165.7633 O.2     1  UNL1       -0.2742
     19 C         142.5083  140.7526  165.6998 C.3     1  UNL1        0.0341
     20 C         142.6959  139.3971  165.0854 C.3     1  UNL1        0.0732
     21 N         142.7697  139.2533  163.5941 N.3     1  UNL1       -0.2725
     22 C         144.0302  139.6171  162.8670 C.3     1  UNL1        0.0748
     23 C         144.1040  139.4733  161.3758 C.3     1  UNL1        0.0485
     24 C         142.9173  138.9656  160.6116 C.3     1  UNL1        0.1096
     25 O         143.8821  139.1788  159.4830 O.3     1  UNL1       -0.3826
     26 C         141.6568  138.6017  161.3387 C.3     1  UNL1        0.0485
     27 C         141.5830  138.7456  162.8299 C.3     1  UNL1        0.0748
     28 H         144.7210  139.5162  159.8342 H       1  UNL1        0.2107
     29 C         142.0657  138.5320  159.4555 C.ar    1  UNL1        0.0019
     30 C         142.6553  137.6880  158.3645 C.ar    1  UNL1       -0.0012
     31 C         141.8036  137.2544  157.2084 C.ar    1  UNL1        0.0111
     32 C         140.3623  137.6648  157.1432 C.ar    1  UNL1        0.0577
     33 CL        139.5106  137.2312  155.9870 Cl      1  UNL1       -0.0822
     34 C         139.7727  138.5087  158.2341 C.ar    1  UNL1        0.0111
     35 C         140.6244  138.9423  159.3902 C.ar    1  UNL1       -0.0012
@<TRIPOS>BOND
     1    14    15    1
     2    15    16    1
     3    15    17   am
     4    17    18    2
     5    17     1    1
     6     1    19    1
     7    19    20    1
     8    20    21    1
     9    21    22    1
    10    22    23    1
    11    23    24    1
    12    24    25    1
    13    24    29    1
    14    29    30   ar
    15    30    31   ar
    16    31    32   ar
    17    32    33    1
    18    32    34   ar
    19    34    35   ar
    20    24    26    1
    21    26    27    1
    22     1     2    1
    23     2     3   ar
    24     3     4   ar
    25     4     5   ar
    26     5     6   ar
    27     6     7   ar
    28     1     8    1
    29     8     9   ar
    30     9    10   ar
    31    10    11   ar
    32    11    12   ar
    33    12    13   ar
    34    27    21    1
    35     7     2   ar
    36    13     8   ar
    37    35    29   ar
    38    25    28    1
@<TRIPOS>MOLECULE
*****
 35 38 0 0 0
SMALL
GASTEIGER

@<TRIPOS>ATOM
      1 C         140.9959  141.5800  165.7094 C.3     1  UNL1        0.1078
      2 C         140.5126  141.5092  167.1276 C.ar    1  UNL1       -0.0108
      3 C         139.7083  140.3296  167.5878 C.ar    1  UNL1       -0.0035
      4 C         139.2250  140.2588  169.0060 C.ar    1  UNL1       -0.0003
      5 C         139.5459  141.3675  169.9640 C.ar    1  UNL1       -0.0000
      6 C         140.3501  142.5471  169.5038 C.ar    1  UNL1       -0.0003
      7 C         140.8335  142.6179  168.0855 C.ar    1  UNL1       -0.0035
      8 C         139.7888  142.3894  165.3384 C.ar    1  UNL1       -0.0108
      9 C         138.7461  141.8080  164.4301 C.ar    1  UNL1       -0.0035
     10 C         137.5390  142.6173  164.0591 C.ar    1  UNL1       -0.0003
     11 C         137.3744  144.0081  164.5964 C.ar    1  UNL1       -0.0000
     12 C         138.4169  144.5895  165.5047 C.ar    1  UNL1       -0.0003
     13 C         139.6241  143.7801  165.8757 C.ar    1  UNL1       -0.0035
     14 C         141.3237  138.3636  165.0513 C.3     1  UNL1        0.1149
     15 N         142.2615  139.3112  165.7387 N.am    1  UNL1       -0.2755
     16 C         143.4687  138.5019  166.1097 C.3     1  UNL1        0.1149
     17 C         142.2031  140.7707  166.0804 C.2     1  UNL1        0.2325
     18 O         143.3518  141.4207  166.7930 O.2     1  UNL1       -0.2742
     19 C         141.4793  141.6509  164.2911 C.3     1  UNL1        0.0341
     20 C         142.1898  142.8777  163.8013 C.3     1  UNL1        0.0732
     21 N         141.6790  143.6091  162.5954 N.3     1  UNL1       -0.2725
     22 C         140.7703  144.7905  162.7639 C.3     1  UNL1        0.0748
     23 C         140.2595  145.5218  161.5579 C.3     1  UNL1        0.0485
     24 C         140.6574  145.0716  160.1835 C.3     1  UNL1        0.1096
     25 O         139.7812  146.2374  159.8323 O.3     1  UNL1       -0.3826
     26 C         141.5662  143.8902  160.0150 C.3     1  UNL1        0.0485
     27 C         142.0769  143.1589  161.2209 C.3     1  UNL1        0.0748
     28 H         139.4402  146.6420  160.6453 H       1  UNL1        0.2107
     29 C         140.7510  145.0264  158.6871 C.ar    1  UNL1        0.0019
     30 C         139.8414  144.1255  157.9056 C.ar    1  UNL1       -0.0012
     31 C         139.9350  144.0804  156.4091 C.ar    1  UNL1        0.0111
     32 C         140.9384  144.9361  155.6944 C.ar    1  UNL1        0.0577
     33 CL        141.0320  144.8909  154.1979 Cl      1  UNL1       -0.0822
     34 C         141.8480  145.8370  156.4759 C.ar    1  UNL1        0.0111
     35 C         141.7544  145.8822  157.9723 C.ar    1  UNL1       -0.0012
@<TRIPOS>BOND
     1    14    15    1
     2    15    16    1
     3    15    17   am
     4    17    18    2
     5    17     1    1
     6     1    19    1
     7    19    20    1
     8    20    21    1
     9    21    22    1
    10    22    23    1
    11    23    24    1
    12    24    25    1
    13    24    29    1
    14    29    30   ar
    15    30    31   ar
    16    31    32   ar
    17    32    33    1
    18    32    34   ar
    19    34    35   ar
    20    24    26    1
    21    26    27    1
    22     1     2    1
    23     2     3   ar
    24     3     4   ar
    25     4     5   ar
    26     5     6   ar
    27     6     7   ar
    28     1     8    1
    29     8     9   ar
    30     9    10   ar
    31    10    11   ar
    32    11    12   ar
    33    12    13   ar
    34    27    21    1
    35     7     2   ar
    36    13     8   ar
    37    35    29   ar
    38    25    28    1
@<TRIPOS>MOLECULE
*****
 35 38 0 0 0
SMALL
GASTEIGER

@<TRIPOS>ATOM
      1 C         141.4724  141.5427  165.7267 C.3     1  UNL1        0.1078
      2 C         141.5499  142.0993  167.1174 C.ar    1  UNL1       -0.0108
      3 C         140.3695  142.8133  167.7064 C.ar    1  UNL1       -0.0035
      4 C         140.4470  143.3699  169.0971 C.ar    1  UNL1       -0.0003
      5 C         141.7049  143.2124  169.8990 C.ar    1  UNL1       -0.0000
      6 C         142.8853  142.4984  169.3100 C.ar    1  UNL1       -0.0003
      7 C         142.8077  141.9418  167.9192 C.ar    1  UNL1       -0.0035
      8 C         142.2179  142.7362  165.2075 C.ar    1  UNL1       -0.0108
      9 C         143.6986  142.8469  165.4211 C.ar    1  UNL1       -0.0035
     10 C         144.4441  144.0404  164.9019 C.ar    1  UNL1       -0.0003
     11 C         143.7090  145.1233  164.1691 C.ar    1  UNL1       -0.0000
     12 C         142.2285  145.0127  163.9555 C.ar    1  UNL1       -0.0003
     13 C         141.4829  143.8192  164.4747 C.ar    1  UNL1       -0.0035
     14 C         138.2976  140.9316  165.0689 C.3     1  UNL1        0.1149
     15 N         139.2820  140.1553  165.8925 N.am    1  UNL1       -0.2755
     16 C         138.5365  138.9618  166.4117 C.3     1  UNL1        0.1149
     17 C         140.7269  140.3492  166.2459 C.2     1  UNL1        0.2325
     18 O         141.4261  139.3494  167.1186 O.2     1  UNL1       -0.2742
     19 C         141.3949  140.9860  164.3359 C.3     1  UNL1        0.0341
     20 C         142.3469  139.9102  163.9045 C.3     1  UNL1        0.0732
     21 N         142.5058  139.5892  162.4479 N.3     1  UNL1       -0.2725
     22 C         143.7594  139.9844  161.7252 C.3     1  UNL1        0.0748
     23 C         143.9182  139.6634  160.2686 C.3     1  UNL1        0.0485
     24 C         142.8235  138.9472  159.5347 C.3     1  UNL1        0.1096
     25 O         143.8167  139.1137  158.4230 O.3     1  UNL1       -0.3826
     26 C         141.5699  138.5520  160.2574 C.3     1  UNL1        0.0485
     27 C         141.4111  138.8730  161.7140 C.3     1  UNL1        0.0748
     28 H         144.6017  139.5752  158.7573 H       1  UNL1        0.2107
     29 C         142.0737  138.2888  158.4147 C.ar    1  UNL1        0.0019
     30 C         140.6859  138.7431  158.0721 C.ar    1  UNL1       -0.0012
     31 C         139.9362  138.0846  156.9521 C.ar    1  UNL1        0.0111
     32 C         140.5744  136.9719  156.1746 C.ar    1  UNL1        0.0577
     33 CL        139.8247  136.3135  155.0546 Cl      1  UNL1       -0.0822
     34 C         141.9623  136.5176  156.5172 C.ar    1  UNL1        0.0111
     35 C         142.7120  137.1760  157.6372 C.ar    1  UNL1       -0.0012
@<TRIPOS>BOND
     1    14    15    1
     2    15    16    1
     3    15    17   am
     4    17    18    2
     5    17     1    1
     6     1    19    1
     7    19    20    1
     8    20    21    1
     9    21    22    1
    10    22    23    1
    11    23    24    1
    12    24    25    1
    13    24    29    1
    14    29    30   ar
    15    30    31   ar
    16    31    32   ar
    17    32    33    1
    18    32    34   ar
    19    34    35   ar
    20    24    26    1
    21    26    27    1
    22     1     2    1
    23     2     3   ar
    24     3     4   ar
    25     4     5   ar
    26     5     6   ar
    27     6     7   ar
    28     1     8    1
    29     8     9   ar
    30     9    10   ar
    31    10    11   ar
    32    11    12   ar
    33    12    13   ar
    34    27    21    1
    35     7     2   ar
    36    13     8   ar
    37    35    29   ar
    38    25    28    1
@<TRIPOS>MOLECULE
*****
 35 38 0 0 0
SMALL
GASTEIGER

@<TRIPOS>ATOM
      1 C         141.1071  140.9738  166.5969 C.3     1  UNL1        0.1078
      2 C         140.1048  139.8799  166.3761 C.ar    1  UNL1       -0.0108
      3 C         138.8411  139.8464  167.1835 C.ar    1  UNL1       -0.0035
      4 C         137.8388  138.7526  166.9627 C.ar    1  UNL1       -0.0003
      5 C         138.1002  137.6921  165.9345 C.ar    1  UNL1       -0.0000
      6 C         139.3640  137.7255  165.1272 C.ar    1  UNL1       -0.0003
      7 C         140.3663  138.8195  165.3480 C.ar    1  UNL1       -0.0035
      8 C         140.2729  141.9053  165.7685 C.ar    1  UNL1       -0.0108
      9 C         139.7377  141.4540  164.4419 C.ar    1  UNL1       -0.0035
     10 C         138.9035  142.3855  163.6135 C.ar    1  UNL1       -0.0003
     11 C         138.6045  143.7684  164.1116 C.ar    1  UNL1       -0.0000
     12 C         139.1397  144.2198  165.4382 C.ar    1  UNL1       -0.0003
     13 C         139.9739  143.2882  166.2667 C.ar    1  UNL1       -0.0035
     14 C         140.9017  140.7545  169.8826 C.3     1  UNL1        0.1149
     15 N         141.7770  140.0131  168.9161 N.am    1  UNL1       -0.2755
     16 C         142.6111  139.0815  169.7445 C.3     1  UNL1        0.1149
     17 C         141.9413  140.0422  167.4253 C.2     1  UNL1        0.2325
     18 O         142.9398  139.1398  166.7631 O.2     1  UNL1       -0.2742
     19 C         142.1095  142.0677  166.8177 C.3     1  UNL1        0.0341
     20 C         143.2747  142.2168  165.8850 C.3     1  UNL1        0.0732
     21 N         143.0477  142.2640  164.4029 N.3     1  UNL1       -0.2725
     22 C         143.2199  141.0232  163.5779 C.3     1  UNL1        0.0748
     23 C         142.9930  141.0704  162.0960 C.3     1  UNL1        0.0485
     24 C         142.5938  142.3585  161.4390 C.3     1  UNL1        0.1096
     25 O         142.6320  141.4562  160.2414 O.3     1  UNL1       -0.3826
     26 C         142.4216  143.5993  162.2640 C.3     1  UNL1        0.0485
     27 C         142.6486  143.5521  163.7460 C.3     1  UNL1        0.0748
     28 H         142.8832  140.5613  160.5187 H       1  UNL1        0.2107
     29 C         142.2080  143.3332  160.3661 C.ar    1  UNL1        0.0019
     30 C         142.9759  143.3739  159.0783 C.ar    1  UNL1       -0.0012
     31 C         142.5900  144.3486  158.0054 C.ar    1  UNL1        0.0111
     32 C         141.4361  145.2825  158.2204 C.ar    1  UNL1        0.0577
     33 CL        141.0502  146.2572  157.1474 Cl      1  UNL1       -0.0822
     34 C         140.6681  145.2418  159.5082 C.ar    1  UNL1        0.0111
     35 C         141.0540  144.2672  160.5811 C.ar    1  UNL1       -0.0012
@<TRIPOS>BOND
     1    14    15    1
     2    15    16    1
     3    15    17   am
     4    17    18    2
     5    17     1    1
     6     1    19    1
     7    19    20    1
     8    20    21    1
     9    21    22    1
    10    22    23    1
    11    23    24    1
    12    24    25    1
    13    24    29    1
    14    29    30   ar
    15    30    31   ar
    16    31    32   ar
    17    32    33    1
    18    32    34   ar
    19    34    35   ar
    20    24    26    1
    21    26    27    1
    22     1     2    1
    23     2     3   ar
    24     3     4   ar
    25     4     5   ar
    26     5     6   ar
    27     6     7   ar
    28     1     8    1
    29     8     9   ar
    30     9    10   ar
    31    10    11   ar
    32    11    12   ar
    33    12    13   ar
    34    27    21    1
    35     7     2   ar
    36    13     8   ar
    37    35    29   ar
    38    25    28    1
@<TRIPOS>MOLECULE
*****
 35 38 0 0 0
SMALL
GASTEIGER

@<TRIPOS>ATOM
      1 C         140.7433  141.4440  165.5686 C.3     1  UNL1        0.1078
      2 C         140.0633  140.1070  165.5702 C.ar    1  UNL1       -0.0108
      3 C         140.6479  138.9673  164.7896 C.ar    1  UNL1       -0.0035
      4 C         139.9679  137.6304  164.7912 C.ar    1  UNL1       -0.0003
      5 C         138.7032  137.4330  165.5734 C.ar    1  UNL1       -0.0000
      6 C         138.1186  138.5727  166.3540 C.ar    1  UNL1       -0.0003
      7 C         138.7987  139.9098  166.3524 C.ar    1  UNL1       -0.0035
      8 C         139.6635  141.9921  164.6835 C.ar    1  UNL1       -0.0108
      9 C         138.8295  143.1498  165.1466 C.ar    1  UNL1       -0.0035
     10 C         137.7498  143.6979  164.2615 C.ar    1  UNL1       -0.0003
     11 C         137.5039  143.0885  162.9131 C.ar    1  UNL1       -0.0000
     12 C         138.3377  141.9309  162.4499 C.ar    1  UNL1       -0.0003
     13 C         139.4176  141.3827  163.3351 C.ar    1  UNL1       -0.0035
     14 C         140.6800  141.6137  168.8630 C.3     1  UNL1        0.1149
     15 N         141.7064  141.0203  167.9441 N.am    1  UNL1       -0.2755
     16 C         142.7861  140.4722  168.8293 C.3     1  UNL1        0.1149
     17 C         141.8230  140.8959  166.4538 C.2     1  UNL1        0.2325
     18 O         143.0195  140.2233  165.8488 O.2     1  UNL1       -0.2742
     19 C         141.4233  142.7811  165.5671 C.3     1  UNL1        0.0341
     20 C         142.3162  143.1670  164.4253 C.3     1  UNL1        0.0732
     21 N         141.7299  143.7834  163.1898 N.3     1  UNL1       -0.2725
     22 C         140.9848  145.0821  163.2808 C.3     1  UNL1        0.0748
     23 C         140.3985  145.6985  162.0454 C.3     1  UNL1        0.0485
     24 C         140.5573  145.0162  160.7190 C.3     1  UNL1        0.1096
     25 O         139.7727  146.2235  160.2986 O.3     1  UNL1       -0.3826
     26 C         141.3023  143.7175  160.6280 C.3     1  UNL1        0.0485
     27 C         141.8886  143.1011  161.8635 C.3     1  UNL1        0.0748
     28 H         139.5897  146.7764  161.0743 H       1  UNL1        0.2107
     29 C         140.4435  144.7532  159.2466 C.ar    1  UNL1        0.0019
     30 C         139.6879  143.5544  158.7549 C.ar    1  UNL1       -0.0012
     31 C         139.5741  143.2915  157.2825 C.ar    1  UNL1        0.0111
     32 C         140.2160  144.2275  156.3018 C.ar    1  UNL1        0.0577
     33 CL        140.1023  143.9646  154.8293 Cl      1  UNL1       -0.0822
     34 C         140.9717  145.4264  156.7935 C.ar    1  UNL1        0.0111
     35 C         141.0854  145.6893  158.2658 C.ar    1  UNL1       -0.0012
@<TRIPOS>BOND
     1    14    15    1
     2    15    16    1
     3    15    17   am
     4    17    18    2
     5    17     1    1
     6     1    19    1
     7    19    20    1
     8    20    21    1
     9    21    22    1
    10    22    23    1
    11    23    24    1
    12    24    25    1
    13    24    29    1
    14    29    30   ar
    15    30    31   ar
    16    31    32   ar
    17    32    33    1
    18    32    34   ar
    19    34    35   ar
    20    24    26    1
    21    26    27    1
    22     1     2    1
    23     2     3   ar
    24     3     4   ar
    25     4     5   ar
    26     5     6   ar
    27     6     7   ar
    28     1     8    1
    29     8     9   ar
    30     9    10   ar
    31    10    11   ar
    32    11    12   ar
    33    12    13   ar
    34    27    21    1
    35     7     2   ar
    36    13     8   ar
    37    35    29   ar
    38    25    28    1
@<TRIPOS>MOLECULE
*****
 35 38 0 0 0
SMALL
GASTEIGER

@<TRIPOS>ATOM
      1 C         141.0693  141.7018  166.3622 C.3     1  UNL1        0.1078
      2 C         139.9289  142.5146  165.8248 C.ar    1  UNL1       -0.0108
      3 C         139.8497  143.9830  166.1205 C.ar    1  UNL1       -0.0035
      4 C         138.7093  144.7958  165.5831 C.ar    1  UNL1       -0.0003
      5 C         137.6481  144.1402  164.7499 C.ar    1  UNL1       -0.0000
      6 C         137.7274  142.6718  164.4542 C.ar    1  UNL1       -0.0003
      7 C         138.8678  141.8589  164.9916 C.ar    1  UNL1       -0.0035
      8 C         141.9696  142.2644  165.3026 C.ar    1  UNL1       -0.0108
      9 C         143.3454  142.7413  165.6630 C.ar    1  UNL1       -0.0035
     10 C         144.2457  143.3039  164.6034 C.ar    1  UNL1       -0.0003
     11 C         143.7704  143.3896  163.1833 C.ar    1  UNL1       -0.0000
     12 C         142.3947  142.9126  162.8228 C.ar    1  UNL1       -0.0003
     13 C         141.4943  142.3500  163.8825 C.ar    1  UNL1       -0.0035
     14 C         141.0022  142.7825  169.4788 C.3     1  UNL1        0.1149
     15 N         140.2095  141.6965  168.8139 N.am    1  UNL1       -0.2755
     16 C         139.3091  141.1340  169.8735 C.3     1  UNL1        0.1149
     17 C         140.1690  141.1392  167.4218 C.2     1  UNL1        0.2325
     18 O         139.2281  140.0192  167.0894 O.2     1  UNL1       -0.2742
     19 C         142.2097  140.8889  166.8997 C.3     1  UNL1        0.0341
     20 C         142.3839  139.4633  166.4671 C.3     1  UNL1        0.0732
     21 N         141.8521  139.0121  165.1390 N.3     1  UNL1       -0.2725
     22 C         140.5482  138.2742  165.0647 C.3     1  UNL1        0.0748
     23 C         140.0164  137.8231  163.7367 C.3     1  UNL1        0.0485
     24 C         140.7884  138.1099  162.4830 C.3     1  UNL1        0.1096
     25 O         139.6106  137.3840  161.9034 O.3     1  UNL1       -0.3826
     26 C         142.0922  138.8477  162.5573 C.3     1  UNL1        0.0485
     27 C         142.6241  139.2988  163.8853 C.3     1  UNL1        0.0748
     28 H         139.0055  137.1281  162.6170 H       1  UNL1        0.2107
     29 C         141.1513  138.1445  161.0280 C.ar    1  UNL1        0.0019
     30 C         142.5180  137.7128  160.5853 C.ar    1  UNL1       -0.0012
     31 C         142.8807  137.7475  159.1302 C.ar    1  UNL1        0.0111
     32 C         141.8769  138.2138  158.1179 C.ar    1  UNL1        0.0577
     33 CL        142.2398  138.2484  156.6628 Cl      1  UNL1       -0.0822
     34 C         140.5103  138.6455  158.5606 C.ar    1  UNL1        0.0111
     35 C         140.1475  138.6108  160.0156 C.ar    1  UNL1       -0.0012
@<TRIPOS>BOND
     1    14    15    1
     2    15    16    1
     3    15    17   am
     4    17    18    2
     5    17     1    1
     6     1    19    1
     7    19    20    1
     8    20    21    1
     9    21    22    1
    10    22    23    1
    11    23    24    1
    12    24    25    1
    13    24    29    1
    14    29    30   ar
    15    30    31   ar
    16    31    32   ar
    17    32    33    1
    18    32    34   ar
    19    34    35   ar
    20    24    26    1
    21    26    27    1
    22     1     2    1
    23     2     3   ar
    24     3     4   ar
    25     4     5   ar
    26     5     6   ar
    27     6     7   ar
    28     1     8    1
    29     8     9   ar
    30     9    10   ar
    31    10    11   ar
    32    11    12   ar
    33    12    13   ar
    34    27    21    1
    35     7     2   ar
    36    13     8   ar
    37    35    29   ar
    38    25    28    1
@<TRIPOS>MOLECULE
*****
 35 38 0 0 0
SMALL
GASTEIGER

@<TRIPOS>ATOM
      1 C         141.9721  140.5920  164.7800 C.3     1  UNL1        0.1078
      2 C         142.2212  140.7679  166.2486 C.ar    1  UNL1       -0.0108
      3 C         142.5521  139.5787  167.1009 C.ar    1  UNL1       -0.0035
      4 C         142.8012  139.7546  168.5696 C.ar    1  UNL1       -0.0003
      5 C         142.7194  141.1197  169.1860 C.ar    1  UNL1       -0.0000
      6 C         142.3885  142.3088  168.3337 C.ar    1  UNL1       -0.0003
      7 C         142.1394  142.1329  166.8650 C.ar    1  UNL1       -0.0035
      8 C         140.7588  139.7646  165.0849 C.ar    1  UNL1       -0.0108
      9 C         139.5983  140.3751  165.8134 C.ar    1  UNL1       -0.0035
     10 C         138.3849  139.5476  166.1183 C.ar    1  UNL1       -0.0003
     11 C         138.3320  138.1096  165.6947 C.ar    1  UNL1       -0.0000
     12 C         139.4923  137.4991  164.9662 C.ar    1  UNL1       -0.0003
     13 C         140.7058  138.3266  164.6613 C.ar    1  UNL1       -0.0035
     14 C         144.9836  139.3305  164.3056 C.3     1  UNL1        0.1149
     15 N         144.5154  140.7552  164.2747 N.am    1  UNL1       -0.2755
     16 C         145.7288  141.5826  163.9699 C.3     1  UNL1        0.1149
     17 C         143.1855  141.4195  164.4751 C.2     1  UNL1        0.2325
     18 O         143.0691  142.9113  164.3706 O.2     1  UNL1       -0.2742
     19 C         141.7231  140.4162  163.3112 C.3     1  UNL1        0.0341
     20 C         141.0006  141.4809  162.5403 C.3     1  UNL1        0.0732
     21 N         141.6326  142.0831  161.3204 N.3     1  UNL1       -0.2725
     22 C         141.3675  143.5169  160.9686 C.3     1  UNL1        0.0748
     23 C         141.9995  144.1190  159.7487 C.3     1  UNL1        0.0485
     24 C         142.8966  143.2872  158.8807 C.3     1  UNL1        0.1096
     25 O         142.9494  144.5892  158.1378 O.3     1  UNL1       -0.3826
     26 C         143.1617  141.8534  159.2326 C.3     1  UNL1        0.0485
     27 C         142.5297  141.2513  160.4524 C.3     1  UNL1        0.0748
     28 H         142.3997  145.2448  158.5949 H       1  UNL1        0.2107
     29 C         143.8120  142.9077  157.7547 C.ar    1  UNL1        0.0019
     30 C         145.2372  142.5364  158.0392 C.ar    1  UNL1       -0.0012
     31 C         146.1526  142.1569  156.9131 C.ar    1  UNL1        0.0111
     32 C         145.6427  142.1488  155.5024 C.ar    1  UNL1        0.0577
     33 CL        146.5582  141.7693  154.3763 Cl      1  UNL1       -0.0822
     34 C         144.2176  142.5202  155.2179 C.ar    1  UNL1        0.0111
     35 C         143.3022  142.8996  156.3440 C.ar    1  UNL1       -0.0012
@<TRIPOS>BOND
     1    14    15    1
     2    15    16    1
     3    15    17   am
     4    17    18    2
     5    17     1    1
     6     1    19    1
     7    19    20    1
     8    20    21    1
     9    21    22    1
    10    22    23    1
    11    23    24    1
    12    24    25    1
    13    24    29    1
    14    29    30   ar
    15    30    31   ar
    16    31    32   ar
    17    32    33    1
    18    32    34   ar
    19    34    35   ar
    20    24    26    1
    21    26    27    1
    22     1     2    1
    23     2     3   ar
    24     3     4   ar
    25     4     5   ar
    26     5     6   ar
    27     6     7   ar
    28     1     8    1
    29     8     9   ar
    30     9    10   ar
    31    10    11   ar
    32    11    12   ar
    33    12    13   ar
    34    27    21    1
    35     7     2   ar
    36    13     8   ar
    37    35    29   ar
    38    25    28    1
