@<TRIPOS>MOLECULE
*****
 31 34 0 0 0
SMALL
GASTEIGER

@<TRIPOS>ATOM
      1 C         138.8099  139.1809  166.3128 C.2     1  UNL1        0.2495
      2 O         137.6415  138.6746  167.1056 O.2     1  UNL1       -0.2699
      3 N         139.9193  139.9199  167.0006 N.am    1  UNL1       -0.2679
      4 N         137.7627  140.1683  158.5959 N.pl3   1  UNL1       -0.3375
      5 C         138.1049  139.7416  159.9926 C.ar    1  UNL1        0.1567
      6 N         138.8810  138.5163  160.3750 N.ar    1  UNL1       -0.2245
      7 C         138.9869  138.4827  161.8709 C.ar    1  UNL1        0.0892
      8 C         139.6386  137.5109  162.8093 C.ar    1  UNL1        0.0198
      9 C         139.5796  137.7436  164.2900 C.ar    1  UNL1        0.0061
     10 C         138.8689  138.9482  164.8321 C.ar    1  UNL1        0.0542
     11 C         138.2172  139.9200  163.8936 C.ar    1  UNL1        0.0126
     12 C         138.2761  139.6872  162.4130 C.ar    1  UNL1        0.0498
     13 S         137.7311  140.4652  161.2521 S.2     1  UNL1       -0.0520
     14 H         138.0543  139.6236  157.8293 H       1  UNL1        0.1442
     15 H         137.2464  140.9930  158.4456 H       1  UNL1        0.1442
     16 C         139.8603  140.1526  168.4814 C.3     1  UNL1        0.1208
     17 C         140.7978  141.1310  169.1247 C.ar    1  UNL1       -0.0023
     18 C         140.3500  142.5387  169.3853 C.ar    1  UNL1       -0.0026
     19 C         141.2875  143.5170  170.0287 C.ar    1  UNL1       -0.0003
     20 C         142.6729  143.0876  170.4114 C.ar    1  UNL1       -0.0000
     21 C         143.1207  141.6800  170.1508 C.ar    1  UNL1       -0.0003
     22 C         142.1831  140.7017  169.5074 C.ar    1  UNL1       -0.0026
     23 C         141.0876  140.4262  166.2078 C.3     1  UNL1        0.1208
     24 C         140.9685  141.7021  165.4280 C.ar    1  UNL1       -0.0014
     25 C         141.9054  141.9752  164.2890 C.ar    1  UNL1       -0.0017
     26 C         141.7863  143.2510  163.5093 C.ar    1  UNL1        0.0120
     27 C         140.7301  144.2537  163.8686 C.ar    1  UNL1        0.0682
     28 CL        140.6109  145.5296  163.0888 Cl      1  UNL1       -0.0814
     29 C         139.7931  143.9806  165.0076 C.ar    1  UNL1        0.0679
     30 CL        138.7370  144.9833  165.3669 Cl      1  UNL1       -0.0814
     31 C         139.9123  142.7048  165.7874 C.ar    1  UNL1        0.0096
@<TRIPOS>BOND
     1     4     5    1
     2     5     6   ar
     3     6     7   ar
     4     7     8   ar
     5     8     9   ar
     6     9    10   ar
     7    10     1    1
     8     1     2    2
     9     1     3   am
    10     3    16    1
    11    16    17    1
    12    17    18   ar
    13    18    19   ar
    14    19    20   ar
    15    20    21   ar
    16    21    22   ar
    17     3    23    1
    18    23    24    1
    19    24    25   ar
    20    25    26   ar
    21    26    27   ar
    22    27    28    1
    23    27    29   ar
    24    29    30    1
    25    29    31   ar
    26    10    11   ar
    27    11    12   ar
    28    12    13   ar
    29    13     5   ar
    30    12     7   ar
    31    22    17   ar
    32    31    24   ar
    33     4    14    1
    34     4    15    1
@<TRIPOS>MOLECULE
*****
 31 34 0 0 0
SMALL
GASTEIGER

@<TRIPOS>ATOM
      1 C         142.8752  138.6758  166.1470 C.2     1  UNL1        0.2495
      2 O         144.0011  137.9704  166.8432 O.2     1  UNL1       -0.2699
      3 N         142.0100  139.6381  166.9054 N.am    1  UNL1       -0.2679
      4 N         143.5906  138.8590  158.3318 N.pl3   1  UNL1       -0.3375
      5 C         143.2274  138.6542  159.7726 C.ar    1  UNL1        0.1567
      6 N         142.0829  137.8310  160.2850 N.ar    1  UNL1       -0.2245
      7 C         142.0930  137.9046  161.7831 C.ar    1  UNL1        0.0892
      8 C         141.2031  137.2928  162.8241 C.ar    1  UNL1        0.0198
      9 C         141.4638  137.5499  164.2787 C.ar    1  UNL1        0.0061
     10 C         142.6145  138.4187  164.6923 C.ar    1  UNL1        0.0542
     11 C         143.5044  139.0305  163.6513 C.ar    1  UNL1        0.0126
     12 C         143.2437  138.7735  162.1967 C.ar    1  UNL1        0.0498
     13 S         143.9447  139.2367  160.9542 S.2     1  UNL1       -0.0520
     14 H         143.0558  138.4324  157.6238 H       1  UNL1        0.1442
     15 H         144.3639  139.4201  158.0940 H       1  UNL1        0.1442
     16 C         142.2707  139.8951  168.3601 C.3     1  UNL1        0.1208
     17 C         141.5124  140.9712  169.0792 C.ar    1  UNL1       -0.0023
     18 C         140.1718  140.6698  169.6810 C.ar    1  UNL1       -0.0026
     19 C         139.4135  141.7458  170.4002 C.ar    1  UNL1       -0.0003
     20 C         139.9958  143.1232  170.5175 C.ar    1  UNL1       -0.0000
     21 C         141.3363  143.4246  169.9157 C.ar    1  UNL1       -0.0003
     22 C         142.0946  142.3485  169.1966 C.ar    1  UNL1       -0.0026
     23 C         140.8840  140.3435  166.2092 C.3     1  UNL1        0.1208
     24 C         141.1180  141.6795  165.5684 C.ar    1  UNL1       -0.0014
     25 C         142.5105  142.1045  165.2074 C.ar    1  UNL1       -0.0017
     26 C         142.7444  143.4404  164.5667 C.ar    1  UNL1        0.0120
     27 C         141.5859  144.3513  164.2869 C.ar    1  UNL1        0.0682
     28 CL        141.8200  145.6872  163.6462 Cl      1  UNL1       -0.0814
     29 C         140.1935  143.9262  164.6479 C.ar    1  UNL1        0.0679
     30 CL        139.0350  144.8370  164.3682 Cl      1  UNL1       -0.0814
     31 C         139.9596  142.5903  165.2887 C.ar    1  UNL1        0.0096
@<TRIPOS>BOND
     1     4     5    1
     2     5     6   ar
     3     6     7   ar
     4     7     8   ar
     5     8     9   ar
     6     9    10   ar
     7    10     1    1
     8     1     2    2
     9     1     3   am
    10     3    16    1
    11    16    17    1
    12    17    18   ar
    13    18    19   ar
    14    19    20   ar
    15    20    21   ar
    16    21    22   ar
    17     3    23    1
    18    23    24    1
    19    24    25   ar
    20    25    26   ar
    21    26    27   ar
    22    27    28    1
    23    27    29   ar
    24    29    30    1
    25    29    31   ar
    26    10    11   ar
    27    11    12   ar
    28    12    13   ar
    29    13     5   ar
    30    12     7   ar
    31    22    17   ar
    32    31    24   ar
    33     4    14    1
    34     4    15    1
@<TRIPOS>MOLECULE
*****
 31 34 0 0 0
SMALL
GASTEIGER

@<TRIPOS>ATOM
      1 C         139.9424  139.3544  165.7677 C.2     1  UNL1        0.2495
      2 O         140.6445  138.0624  165.4715 O.2     1  UNL1       -0.2699
      3 N         138.9808  139.9310  164.7713 N.am    1  UNL1       -0.2679
      4 N         143.3946  143.8426  171.2047 N.pl3   1  UNL1       -0.3375
      5 C         142.5331  142.9446  170.3671 C.ar    1  UNL1        0.1567
      6 N         141.2394  142.3160  170.7928 N.ar    1  UNL1       -0.2245
      7 C         140.7208  141.5004  169.6456 C.ar    1  UNL1        0.0892
      8 C         139.4882  140.6605  169.4876 C.ar    1  UNL1        0.0198
      9 C         139.2287  139.9451  168.1950 C.ar    1  UNL1        0.0061
     10 C         140.2019  140.0698  167.0603 C.ar    1  UNL1        0.0542
     11 C         141.4345  140.9097  167.2183 C.ar    1  UNL1        0.0126
     12 C         141.6940  141.6251  168.5110 C.ar    1  UNL1        0.0498
     13 S         142.8140  142.5176  168.9569 S.2     1  UNL1       -0.0520
     14 H         143.1242  144.0665  172.1245 H       1  UNL1        0.1442
     15 H         144.2305  144.2081  170.8346 H       1  UNL1        0.1442
     16 C         138.7213  139.2156  163.4786 C.3     1  UNL1        0.1208
     17 C         139.0128  139.8953  162.1736 C.ar    1  UNL1       -0.0023
     18 C         137.9226  140.0676  161.1578 C.ar    1  UNL1       -0.0026
     19 C         138.2141  140.7474  159.8528 C.ar    1  UNL1       -0.0003
     20 C         139.5958  141.2548  159.5636 C.ar    1  UNL1       -0.0000
     21 C         140.6859  141.0825  160.5795 C.ar    1  UNL1       -0.0003
     22 C         140.3944  140.4028  161.8845 C.ar    1  UNL1       -0.0026
     23 C         138.2787  141.2230  165.0675 C.3     1  UNL1        0.1208
     24 C         138.6594  142.4705  164.3265 C.ar    1  UNL1       -0.0014
     25 C         137.6885  143.1027  163.3738 C.ar    1  UNL1       -0.0017
     26 C         138.0692  144.3501  162.6329 C.ar    1  UNL1        0.0120
     27 C         139.4207  144.9653  162.8446 C.ar    1  UNL1        0.0682
     28 CL        139.8014  146.2128  162.1036 Cl      1  UNL1       -0.0814
     29 C         140.3916  144.3331  163.7973 C.ar    1  UNL1        0.0679
     30 CL        141.7432  144.9482  164.0090 Cl      1  UNL1       -0.0814
     31 C         140.0109  143.0857  164.5382 C.ar    1  UNL1        0.0096
@<TRIPOS>BOND
     1     4     5    1
     2     5     6   ar
     3     6     7   ar
     4     7     8   ar
     5     8     9   ar
     6     9    10   ar
     7    10     1    1
     8     1     2    2
     9     1     3   am
    10     3    16    1
    11    16    17    1
    12    17    18   ar
    13    18    19   ar
    14    19    20   ar
    15    20    21   ar
    16    21    22   ar
    17     3    23    1
    18    23    24    1
    19    24    25   ar
    20    25    26   ar
    21    26    27   ar
    22    27    28    1
    23    27    29   ar
    24    29    30    1
    25    29    31   ar
    26    10    11   ar
    27    11    12   ar
    28    12    13   ar
    29    13     5   ar
    30    12     7   ar
    31    22    17   ar
    32    31    24   ar
    33     4    14    1
    34     4    15    1
@<TRIPOS>MOLECULE
*****
 31 34 0 0 0
SMALL
GASTEIGER

@<TRIPOS>ATOM
      1 C         142.4988  139.0735  166.3547 C.2     1  UNL1        0.2495
      2 O         143.6250  138.1299  166.6570 O.2     1  UNL1       -0.2699
      3 N         141.6739  138.8845  165.1163 N.am    1  UNL1       -0.2679
      4 N         138.8567  143.5084  171.7110 N.pl3   1  UNL1       -0.3375
      5 C         139.7495  142.8711  170.6878 C.ar    1  UNL1        0.1567
      6 N         141.0379  143.4361  170.1676 N.ar    1  UNL1       -0.2245
      7 C         141.5953  142.4712  169.1635 C.ar    1  UNL1        0.0892
      8 C         142.8405  142.5000  168.3276 C.ar    1  UNL1        0.0198
      9 C         143.1416  141.3675  167.3914 C.ar    1  UNL1        0.0061
     10 C         142.1976  140.2061  167.2910 C.ar    1  UNL1        0.0542
     11 C         140.9525  140.1772  168.1269 C.ar    1  UNL1        0.0126
     12 C         140.6514  141.3098  169.0632 C.ar    1  UNL1        0.0498
     13 S         139.5106  141.5570  170.0053 S.2     1  UNL1       -0.0520
     14 H         139.1003  144.3777  172.1038 H       1  UNL1        0.1442
     15 H         138.0272  143.0574  171.9897 H       1  UNL1        0.1442
     16 C         141.9751  137.7519  164.1800 C.3     1  UNL1        0.1208
     17 C         142.3285  138.0348  162.7500 C.ar    1  UNL1       -0.0023
     18 C         141.2801  137.9258  161.6827 C.ar    1  UNL1       -0.0026
     19 C         141.6335  138.2087  160.2526 C.ar    1  UNL1       -0.0003
     20 C         143.0352  138.6006  159.8898 C.ar    1  UNL1       -0.0000
     21 C         144.0835  138.7096  160.9571 C.ar    1  UNL1       -0.0003
     22 C         143.7302  138.4267  162.3872 C.ar    1  UNL1       -0.0026
     23 C         140.5477  139.8282  164.8141 C.3     1  UNL1        0.1208
     24 C         140.8370  141.2684  164.5107 C.ar    1  UNL1       -0.0014
     25 C         142.0919  141.6435  163.7796 C.ar    1  UNL1       -0.0017
     26 C         142.3811  143.0837  163.4762 C.ar    1  UNL1        0.0120
     27 C         141.4155  144.1488  163.9038 C.ar    1  UNL1        0.0682
     28 CL        141.7047  145.5891  163.6004 Cl      1  UNL1       -0.0814
     29 C         140.1606  143.7738  164.6349 C.ar    1  UNL1        0.0679
     30 CL        139.1949  144.8390  165.0626 Cl      1  UNL1       -0.0814
     31 C         139.8713  142.3336  164.9383 C.ar    1  UNL1        0.0096
@<TRIPOS>BOND
     1     4     5    1
     2     5     6   ar
     3     6     7   ar
     4     7     8   ar
     5     8     9   ar
     6     9    10   ar
     7    10     1    1
     8     1     2    2
     9     1     3   am
    10     3    16    1
    11    16    17    1
    12    17    18   ar
    13    18    19   ar
    14    19    20   ar
    15    20    21   ar
    16    21    22   ar
    17     3    23    1
    18    23    24    1
    19    24    25   ar
    20    25    26   ar
    21    26    27   ar
    22    27    28    1
    23    27    29   ar
    24    29    30    1
    25    29    31   ar
    26    10    11   ar
    27    11    12   ar
    28    12    13   ar
    29    13     5   ar
    30    12     7   ar
    31    22    17   ar
    32    31    24   ar
    33     4    14    1
    34     4    15    1
@<TRIPOS>MOLECULE
*****
 31 34 0 0 0
SMALL
GASTEIGER

@<TRIPOS>ATOM
      1 C         140.5779  139.5761  164.3952 C.2     1  UNL1        0.2495
      2 O         141.7244  138.6157  164.5103 O.2     1  UNL1       -0.2699
      3 N         140.2502  140.4930  165.5362 N.am    1  UNL1       -0.2679
      4 N         138.1589  141.4786  157.1736 N.pl3   1  UNL1       -0.3375
      5 C         138.3885  140.9454  158.5567 C.ar    1  UNL1        0.1567
      6 N         137.5205  139.9554  159.2754 N.ar    1  UNL1       -0.2245
      7 C         138.1219  139.7068  160.6269 C.ar    1  UNL1        0.0892
      8 C         137.7008  138.8269  161.7663 C.ar    1  UNL1        0.0198
      9 C         138.5195  138.7834  163.0224 C.ar    1  UNL1        0.0061
     10 C         139.7592  139.6197  163.1390 C.ar    1  UNL1        0.0542
     11 C         140.1803  140.4996  161.9995 C.ar    1  UNL1        0.0126
     12 C         139.3616  140.5431  160.7435 C.ar    1  UNL1        0.0498
     13 S         139.5264  141.3086  159.4640 S.2     1  UNL1       -0.0520
     14 H         137.3789  141.1781  156.6534 H       1  UNL1        0.1442
     15 H         138.7883  142.1289  156.7859 H       1  UNL1        0.1442
     16 C         141.0689  140.4494  166.7924 C.3     1  UNL1        0.1208
     17 C         140.6122  141.1947  168.0115 C.ar    1  UNL1       -0.0023
     18 C         141.0694  142.6043  168.2438 C.ar    1  UNL1       -0.0026
     19 C         140.6128  143.3496  169.4628 C.ar    1  UNL1       -0.0003
     20 C         139.6989  142.6852  170.4495 C.ar    1  UNL1       -0.0000
     21 C         139.2417  141.2756  170.2172 C.ar    1  UNL1       -0.0003
     22 C         139.6984  140.5303  168.9981 C.ar    1  UNL1       -0.0026
     23 C         139.1037  141.4534  165.4211 C.3     1  UNL1        0.1208
     24 C         139.2354  142.6796  164.5671 C.ar    1  UNL1       -0.0014
     25 C         138.0837  143.1293  163.7179 C.ar    1  UNL1       -0.0017
     26 C         138.2154  144.3554  162.8639 C.ar    1  UNL1        0.0120
     27 C         139.4988  145.1318  162.8592 C.ar    1  UNL1        0.0682
     28 CL        139.6305  146.3580  162.0052 Cl      1  UNL1       -0.0814
     29 C         140.6505  144.6821  163.7085 C.ar    1  UNL1        0.0679
     30 CL        141.9340  145.4585  163.7038 Cl      1  UNL1       -0.0814
     31 C         140.5188  143.4560  164.5624 C.ar    1  UNL1        0.0096
@<TRIPOS>BOND
     1     4     5    1
     2     5     6   ar
     3     6     7   ar
     4     7     8   ar
     5     8     9   ar
     6     9    10   ar
     7    10     1    1
     8     1     2    2
     9     1     3   am
    10     3    16    1
    11    16    17    1
    12    17    18   ar
    13    18    19   ar
    14    19    20   ar
    15    20    21   ar
    16    21    22   ar
    17     3    23    1
    18    23    24    1
    19    24    25   ar
    20    25    26   ar
    21    26    27   ar
    22    27    28    1
    23    27    29   ar
    24    29    30    1
    25    29    31   ar
    26    10    11   ar
    27    11    12   ar
    28    12    13   ar
    29    13     5   ar
    30    12     7   ar
    31    22    17   ar
    32    31    24   ar
    33     4    14    1
    34     4    15    1
@<TRIPOS>MOLECULE
*****
 31 34 0 0 0
SMALL
GASTEIGER

@<TRIPOS>ATOM
      1 C         139.0411  139.7510  164.7428 C.2     1  UNL1        0.2495
      2 O         138.6105  138.4985  164.0386 O.2     1  UNL1       -0.2699
      3 N         138.4338  141.0698  164.3662 N.am    1  UNL1       -0.2679
      4 N         142.4975  140.3719  171.7636 N.pl3   1  UNL1       -0.3375
      5 C         142.0921  140.1505  170.3365 C.ar    1  UNL1        0.1567
      6 N         142.9652  139.6027  169.2467 N.ar    1  UNL1       -0.2245
      7 C         142.1551  139.5517  167.9853 C.ar    1  UNL1        0.0892
      8 C         142.4909  139.1018  166.5943 C.ar    1  UNL1        0.0198
      9 C         141.4529  139.1682  165.5135 C.ar    1  UNL1        0.0061
     10 C         140.0791  139.6845  165.8237 C.ar    1  UNL1        0.0542
     11 C         139.7433  140.1344  167.2146 C.ar    1  UNL1        0.0126
     12 C         140.7813  140.0680  168.2954 C.ar    1  UNL1        0.0498
     13 S         140.7424  140.4381  169.7485 S.2     1  UNL1       -0.0520
     14 H         143.4114  140.1511  172.0556 H       1  UNL1        0.1442
     15 H         141.8497  140.7380  172.4082 H       1  UNL1        0.1442
     16 C         137.3958  141.1362  163.2854 C.3     1  UNL1        0.1208
     17 C         137.8146  141.2063  161.8467 C.ar    1  UNL1       -0.0023
     18 C         138.2568  142.5129  161.2571 C.ar    1  UNL1       -0.0026
     19 C         138.6755  142.5830  159.8185 C.ar    1  UNL1       -0.0003
     20 C         138.6521  141.3466  158.9694 C.ar    1  UNL1       -0.0000
     21 C         138.2098  140.0402  159.5590 C.ar    1  UNL1       -0.0003
     22 C         137.7911  139.9701  160.9976 C.ar    1  UNL1       -0.0026
     23 C         138.8644  142.3222  165.0705 C.3     1  UNL1        0.1208
     24 C         140.0980  143.0485  164.6221 C.ar    1  UNL1       -0.0014
     25 C         139.9786  144.2559  163.7402 C.ar    1  UNL1       -0.0017
     26 C         141.2121  144.9821  163.2919 C.ar    1  UNL1        0.0120
     27 C         142.5650  144.5008  163.7253 C.ar    1  UNL1        0.0682
     28 CL        143.7986  145.2270  163.2769 Cl      1  UNL1       -0.0814
     29 C         142.6844  143.2933  164.6072 C.ar    1  UNL1        0.0679
     30 CL        144.0374  142.8120  165.0406 Cl      1  UNL1       -0.0814
     31 C         141.4509  142.5671  165.0555 C.ar    1  UNL1        0.0096
@<TRIPOS>BOND
     1     4     5    1
     2     5     6   ar
     3     6     7   ar
     4     7     8   ar
     5     8     9   ar
     6     9    10   ar
     7    10     1    1
     8     1     2    2
     9     1     3   am
    10     3    16    1
    11    16    17    1
    12    17    18   ar
    13    18    19   ar
    14    19    20   ar
    15    20    21   ar
    16    21    22   ar
    17     3    23    1
    18    23    24    1
    19    24    25   ar
    20    25    26   ar
    21    26    27   ar
    22    27    28    1
    23    27    29   ar
    24    29    30    1
    25    29    31   ar
    26    10    11   ar
    27    11    12   ar
    28    12    13   ar
    29    13     5   ar
    30    12     7   ar
    31    22    17   ar
    32    31    24   ar
    33     4    14    1
    34     4    15    1
@<TRIPOS>MOLECULE
*****
 31 34 0 0 0
SMALL
GASTEIGER

@<TRIPOS>ATOM
      1 C         138.9513  139.2793  167.0947 C.2     1  UNL1        0.2495
      2 O         137.8061  138.4218  167.5453 O.2     1  UNL1       -0.2699
      3 N         139.3492  139.3000  165.6486 N.am    1  UNL1       -0.2679
      4 N         144.7185  143.3525  170.5257 N.pl3   1  UNL1       -0.3375
      5 C         143.4637  142.6478  170.1028 C.ar    1  UNL1        0.1567
      6 N         142.1771  142.6001  170.8724 N.ar    1  UNL1       -0.2245
      7 C         141.1934  141.7899  170.0813 C.ar    1  UNL1        0.0892
      8 C         139.7674  141.4062  170.3444 C.ar    1  UNL1        0.0198
      9 C         139.0201  140.5693  169.3488 C.ar    1  UNL1        0.0061
     10 C         139.6988  140.1162  168.0902 C.ar    1  UNL1        0.0542
     11 C         141.1248  140.4999  167.8272 C.ar    1  UNL1        0.0126
     12 C         141.8721  141.3368  168.8227 C.ar    1  UNL1        0.0498
     13 S         143.2752  141.8670  168.8360 S.2     1  UNL1       -0.0520
     14 H         144.7446  143.8413  171.3798 H       1  UNL1        0.1442
     15 H         145.5161  143.3262  169.9491 H       1  UNL1        0.1442
     16 C         138.6018  138.4631  164.6530 C.3     1  UNL1        0.1208
     17 C         138.7161  138.7604  163.1872 C.ar    1  UNL1       -0.0023
     18 C         139.7382  138.0450  162.3543 C.ar    1  UNL1       -0.0026
     19 C         139.8526  138.3423  160.8886 C.ar    1  UNL1       -0.0003
     20 C         138.9448  139.3550  160.2556 C.ar    1  UNL1       -0.0000
     21 C         137.9228  140.0703  161.0885 C.ar    1  UNL1       -0.0003
     22 C         137.8085  139.7731  162.5543 C.ar    1  UNL1       -0.0026
     23 C         140.4944  140.1575  165.1979 C.3     1  UNL1        0.1208
     24 C         140.2289  141.4906  164.5633 C.ar    1  UNL1       -0.0014
     25 C         140.6981  141.7622  163.1648 C.ar    1  UNL1       -0.0017
     26 C         140.4326  143.0952  162.5303 C.ar    1  UNL1        0.0120
     27 C         139.6978  144.1565  163.2943 C.ar    1  UNL1        0.0682
     28 CL        139.4323  145.4895  162.6597 Cl      1  UNL1       -0.0814
     29 C         139.2285  143.8848  164.6929 C.ar    1  UNL1        0.0679
     30 CL        138.4937  144.9461  165.4569 Cl      1  UNL1       -0.0814
     31 C         139.4941  142.5518  165.3274 C.ar    1  UNL1        0.0096
@<TRIPOS>BOND
     1     4     5    1
     2     5     6   ar
     3     6     7   ar
     4     7     8   ar
     5     8     9   ar
     6     9    10   ar
     7    10     1    1
     8     1     2    2
     9     1     3   am
    10     3    16    1
    11    16    17    1
    12    17    18   ar
    13    18    19   ar
    14    19    20   ar
    15    20    21   ar
    16    21    22   ar
    17     3    23    1
    18    23    24    1
    19    24    25   ar
    20    25    26   ar
    21    26    27   ar
    22    27    28    1
    23    27    29   ar
    24    29    30    1
    25    29    31   ar
    26    10    11   ar
    27    11    12   ar
    28    12    13   ar
    29    13     5   ar
    30    12     7   ar
    31    22    17   ar
    32    31    24   ar
    33     4    14    1
    34     4    15    1
@<TRIPOS>MOLECULE
*****
 31 34 0 0 0
SMALL
GASTEIGER

@<TRIPOS>ATOM
      1 C         143.4022  140.0149  164.6299 C.2     1  UNL1        0.2495
      2 O         144.0168  138.7406  164.1316 O.2     1  UNL1       -0.2699
      3 N         143.8229  141.3299  164.0437 N.am    1  UNL1       -0.2679
      4 N         140.1224  139.9116  171.7613 N.pl3   1  UNL1       -0.3375
      5 C         140.4775  139.9181  170.3039 C.ar    1  UNL1        0.1567
      6 N         139.5086  139.8651  169.1601 N.ar    1  UNL1       -0.2245
      7 C         140.2961  139.8930  167.8837 C.ar    1  UNL1        0.0892
      8 C         139.8757  139.8635  166.4442 C.ar    1  UNL1        0.0198
      9 C         140.9111  139.9041  165.3596 C.ar    1  UNL1        0.0061
     10 C         142.3668  139.9743  165.7146 C.ar    1  UNL1        0.0542
     11 C         142.7871  140.0037  167.1542 C.ar    1  UNL1        0.0126
     12 C         141.7518  139.9631  168.2387 C.ar    1  UNL1        0.0498
     13 S         141.8639  139.9786  169.7345 S.2     1  UNL1       -0.0520
     14 H         139.1785  139.8696  172.0377 H       1  UNL1        0.1442
     15 H         140.8333  139.9494  172.4413 H       1  UNL1        0.1442
     16 C         144.8583  141.3706  162.9590 C.3     1  UNL1        0.1208
     17 C         144.4377  141.3464  161.5194 C.ar    1  UNL1       -0.0023
     18 C         143.9141  140.0786  160.9122 C.ar    1  UNL1       -0.0026
     19 C         143.4934  140.0545  159.4726 C.ar    1  UNL1       -0.0003
     20 C         143.5964  141.2981  158.6401 C.ar    1  UNL1       -0.0000
     21 C         144.1200  142.5658  159.2474 C.ar    1  UNL1       -0.0003
     22 C         144.5406  142.5900  160.6870 C.ar    1  UNL1       -0.0026
     23 C         143.2084  142.6043  164.5420 C.3     1  UNL1        0.1208
     24 C         141.8179  142.9803  164.1230 C.ar    1  UNL1       -0.0014
     25 C         141.3053  142.5732  162.7735 C.ar    1  UNL1       -0.0017
     26 C         139.9150  142.9492  162.3546 C.ar    1  UNL1        0.0120
     27 C         139.0373  143.7324  163.2854 C.ar    1  UNL1        0.0682
     28 CL        137.6469  144.1085  162.8664 Cl      1  UNL1       -0.0814
     29 C         139.5499  144.1396  164.6349 C.ar    1  UNL1        0.0679
     30 CL        138.6722  144.9228  165.5656 Cl      1  UNL1       -0.0814
     31 C         140.9403  143.7635  165.0538 C.ar    1  UNL1        0.0096
@<TRIPOS>BOND
     1     4     5    1
     2     5     6   ar
     3     6     7   ar
     4     7     8   ar
     5     8     9   ar
     6     9    10   ar
     7    10     1    1
     8     1     2    2
     9     1     3   am
    10     3    16    1
    11    16    17    1
    12    17    18   ar
    13    18    19   ar
    14    19    20   ar
    15    20    21   ar
    16    21    22   ar
    17     3    23    1
    18    23    24    1
    19    24    25   ar
    20    25    26   ar
    21    26    27   ar
    22    27    28    1
    23    27    29   ar
    24    29    30    1
    25    29    31   ar
    26    10    11   ar
    27    11    12   ar
    28    12    13   ar
    29    13     5   ar
    30    12     7   ar
    31    22    17   ar
    32    31    24   ar
    33     4    14    1
    34     4    15    1
@<TRIPOS>MOLECULE
*****
 31 34 0 0 0
SMALL
GASTEIGER

@<TRIPOS>ATOM
      1 C         142.1488  138.7630  165.4609 C.2     1  UNL1        0.2495
      2 O         143.5681  138.3129  165.2790 O.2     1  UNL1       -0.2699
      3 N         141.7181  139.3797  166.7586 N.am    1  UNL1       -0.2679
      4 N         138.4277  139.7899  158.6256 N.pl3   1  UNL1       -0.3375
      5 C         138.9399  139.3905  159.9776 C.ar    1  UNL1        0.1567
      6 N         138.3594  138.3267  160.8615 N.ar    1  UNL1       -0.2245
      7 C         139.1833  138.2635  162.1134 C.ar    1  UNL1        0.0892
      8 C         139.0820  137.4052  163.3394 C.ar    1  UNL1        0.0198
      9 C         140.0705  137.5718  164.4552 C.ar    1  UNL1        0.0061
     10 C         141.1603  138.5965  164.3450 C.ar    1  UNL1        0.0542
     11 C         141.2616  139.4548  163.1190 C.ar    1  UNL1        0.0126
     12 C         140.2731  139.2883  162.0032 C.ar    1  UNL1        0.0498
     13 S         140.1227  139.9848  160.6832 S.2     1  UNL1       -0.0520
     14 H         137.6401  139.3384  158.2445 H       1  UNL1        0.1442
     15 H         138.8790  140.5034  158.1192 H       1  UNL1        0.1442
     16 C         142.7066  139.5462  167.8745 C.3     1  UNL1        0.1208
     17 C         142.4172  140.4980  168.9971 C.ar    1  UNL1       -0.0023
     18 C         141.5127  140.0817  170.1191 C.ar    1  UNL1       -0.0026
     19 C         141.2233  141.0335  171.2417 C.ar    1  UNL1       -0.0003
     20 C         141.8382  142.4017  171.2423 C.ar    1  UNL1       -0.0000
     21 C         142.7426  142.8180  170.1203 C.ar    1  UNL1       -0.0003
     22 C         143.0321  141.8662  168.9978 C.ar    1  UNL1       -0.0026
     23 C         140.2989  139.8298  166.9406 C.3     1  UNL1        0.1208
     24 C         139.7978  141.0427  166.2140 C.ar    1  UNL1       -0.0014
     25 C         140.3714  142.3934  166.5247 C.ar    1  UNL1       -0.0017
     26 C         139.8703  143.6062  165.7982 C.ar    1  UNL1        0.0120
     27 C         138.7955  143.4684  164.7609 C.ar    1  UNL1        0.0682
     28 CL        138.2944  144.6813  164.0343 Cl      1  UNL1       -0.0814
     29 C         138.2219  142.1177  164.4502 C.ar    1  UNL1        0.0679
     30 CL        137.1472  141.9798  163.4129 Cl      1  UNL1       -0.0814
     31 C         138.7230  140.9049  165.1767 C.ar    1  UNL1        0.0096
@<TRIPOS>BOND
     1     4     5    1
     2     5     6   ar
     3     6     7   ar
     4     7     8   ar
     5     8     9   ar
     6     9    10   ar
     7    10     1    1
     8     1     2    2
     9     1     3   am
    10     3    16    1
    11    16    17    1
    12    17    18   ar
    13    18    19   ar
    14    19    20   ar
    15    20    21   ar
    16    21    22   ar
    17     3    23    1
    18    23    24    1
    19    24    25   ar
    20    25    26   ar
    21    26    27   ar
    22    27    28    1
    23    27    29   ar
    24    29    30    1
    25    29    31   ar
    26    10    11   ar
    27    11    12   ar
    28    12    13   ar
    29    13     5   ar
    30    12     7   ar
    31    22    17   ar
    32    31    24   ar
    33     4    14    1
    34     4    15    1
