@<TRIPOS>MOLECULE
*****
 30 33 0 0 0
SMALL
GASTEIGER

@<TRIPOS>ATOM
      1 C         142.6858  143.7520  158.2363 C.ar    1  UNL1        0.1739
      2 C         142.5084  142.9870  159.5143 C.ar    1  UNL1        0.0593
      3 C         141.5952  143.5121  160.5821 C.ar    1  UNL1        0.0901
      4 N         141.4178  142.7470  161.8602 N.ar    1  UNL1       -0.2134
      5 C         140.5046  143.2721  162.9280 C.ar    1  UNL1        0.2214
      6 N         139.7687  144.5622  162.7178 N.ar    1  UNL1       -0.1991
      7 C         139.9460  145.3272  161.4398 C.ar    1  UNL1        0.1298
      8 N         139.2101  146.6172  161.2297 N.pl3   1  UNL1       -0.3425
      9 C         140.8593  144.8021  160.3720 C.ar    1  UNL1        0.0522
     10 C         141.0366  145.5671  159.0940 C.ar    1  UNL1        0.0443
     11 C         141.9499  145.0421  158.0262 C.ar    1  UNL1        0.1726
     12 H         138.6107  146.9618  161.9306 H       1  UNL1        0.1437
     13 H         139.3265  147.1193  160.3909 H       1  UNL1        0.1437
     14 N         140.3272  142.5071  164.2060 N.pl3   1  UNL1       -0.2747
     15 C         141.3259  142.6576  165.3150 C.3     1  UNL1        0.1151
     16 C         141.1485  141.8926  166.5931 C.3     1  UNL1        0.1150
     17 N         139.9725  140.9770  166.7620 N.am    1  UNL1       -0.2741
     18 C         139.7951  140.2121  168.0400 C.2     1  UNL1        0.2529
     19 O         138.6190  139.2964  168.2091 O.2     1  UNL1       -0.2722
     20 C         138.9738  140.8265  165.6530 C.3     1  UNL1        0.1150
     21 C         139.1511  141.5915  164.3750 C.3     1  UNL1        0.1151
     22 C         140.7938  140.3626  169.1490 C.3     1  UNL1        0.1910
     23 C         142.0347  139.5406  169.3357 C.3     1  UNL1        0.0416
     24 C         142.7348  140.0316  170.5682 C.3     1  UNL1        0.0351
     25 C         141.9267  141.1570  171.1431 C.3     1  UNL1        0.1428
     26 O         140.7271  141.3615  170.2661 O.3     1  UNL1       -0.3471
     27 C         144.7448  142.3311  157.5353 C.3     1  UNL1        0.2526
     28 O         143.5990  143.2270  157.1685 O.3     1  UNL1       -0.4683
     29 O         142.1272  145.8071  156.7481 O.3     1  UNL1       -0.4684
     30 C         140.9639  145.9977  155.8205 C.3     1  UNL1        0.2526
@<TRIPOS>BOND
     1    27    28    1
     2    28     1    1
     3     1     2   ar
     4     2     3   ar
     5     3     4   ar
     6     4     5   ar
     7     5    14    1
     8    14    15    1
     9    15    16    1
    10    16    17    1
    11    17    18   am
    12    18    19    2
    13    18    22    1
    14    22    23    1
    15    23    24    1
    16    24    25    1
    17    25    26    1
    18    17    20    1
    19    20    21    1
    20     5     6   ar
    21     6     7   ar
    22     7     8    1
    23     7     9   ar
    24     9    10   ar
    25    10    11   ar
    26    11    29    1
    27    29    30    1
    28    11     1   ar
    29     9     3   ar
    30    21    14    1
    31    26    22    1
    32     8    12    1
    33     8    13    1
@<TRIPOS>MOLECULE
*****
 30 33 0 0 0
SMALL
GASTEIGER

@<TRIPOS>ATOM
      1 C         140.5141  142.0645  168.4398 C.ar    1  UNL1        0.1739
      2 C         140.5099  142.0552  166.9399 C.ar    1  UNL1        0.0593
      3 C         139.7938  140.9654  166.1986 C.ar    1  UNL1        0.0901
      4 N         139.7897  140.9562  164.6986 N.ar    1  UNL1       -0.2134
      5 C         139.0736  139.8664  163.9573 C.ar    1  UNL1        0.2214
      6 N         138.3616  138.7858  164.7160 N.ar    1  UNL1       -0.1991
      7 C         138.3658  138.7951  166.2159 C.ar    1  UNL1        0.1298
      8 N         137.6539  137.7146  166.9746 N.pl3   1  UNL1       -0.3425
      9 C         139.0819  139.8849  166.9572 C.ar    1  UNL1        0.0522
     10 C         139.0861  139.8942  168.4572 C.ar    1  UNL1        0.0443
     11 C         139.8022  140.9840  169.1984 C.ar    1  UNL1        0.1726
     12 H         137.1839  136.9993  166.4881 H       1  UNL1        0.1437
     13 H         137.6566  137.7206  167.9591 H       1  UNL1        0.1437
     14 N         139.0694  139.8571  162.4573 N.pl3   1  UNL1       -0.2747
     15 C         138.0841  140.7014  161.7048 C.3     1  UNL1        0.1151
     16 C         138.0799  140.6921  160.2048 C.3     1  UNL1        0.1150
     17 N         139.0610  139.8384  159.4574 N.am    1  UNL1       -0.2741
     18 C         139.0569  139.8291  157.9575 C.2     1  UNL1        0.2529
     19 O         140.0380  138.9755  157.2100 O.2     1  UNL1       -0.2722
     20 C         140.0463  138.9941  160.2099 C.3     1  UNL1        0.1150
     21 C         140.0505  139.0034  161.7098 C.3     1  UNL1        0.1151
     22 C         138.0716  140.6735  157.2049 C.3     1  UNL1        0.1910
     23 C         138.3033  142.0713  156.7124 C.3     1  UNL1        0.0416
     24 C         137.0565  142.5299  156.0159 C.3     1  UNL1        0.0351
     25 C         136.0542  141.4157  156.0780 C.3     1  UNL1        0.1428
     26 O         136.6816  140.2683  156.8128 O.3     1  UNL1       -0.3471
     27 C         140.4474  144.1896  169.9329 C.3     1  UNL1        0.2526
     28 O         141.2302  143.1543  169.1811 O.3     1  UNL1       -0.4683
     29 O         139.8063  140.9933  170.6985 O.3     1  UNL1       -0.4684
     30 C         141.0752  140.7100  171.4467 C.3     1  UNL1        0.2526
@<TRIPOS>BOND
     1    27    28    1
     2    28     1    1
     3     1     2   ar
     4     2     3   ar
     5     3     4   ar
     6     4     5   ar
     7     5    14    1
     8    14    15    1
     9    15    16    1
    10    16    17    1
    11    17    18   am
    12    18    19    2
    13    18    22    1
    14    22    23    1
    15    23    24    1
    16    24    25    1
    17    25    26    1
    18    17    20    1
    19    20    21    1
    20     5     6   ar
    21     6     7   ar
    22     7     8    1
    23     7     9   ar
    24     9    10   ar
    25    10    11   ar
    26    11    29    1
    27    29    30    1
    28    11     1   ar
    29     9     3   ar
    30    21    14    1
    31    26    22    1
    32     8    12    1
    33     8    13    1
@<TRIPOS>MOLECULE
*****
 30 33 0 0 0
SMALL
GASTEIGER

@<TRIPOS>ATOM
      1 C         141.0163  141.8779  168.5130 C.ar    1  UNL1        0.1739
      2 C         141.0652  141.7076  167.0235 C.ar    1  UNL1        0.0593
      3 C         140.1687  140.7094  166.3529 C.ar    1  UNL1        0.0901
      4 N         140.2176  140.5391  164.8634 N.ar    1  UNL1       -0.2134
      5 C         139.3210  139.5408  164.1928 C.ar    1  UNL1        0.2214
      6 N         138.3755  138.7129  165.0117 N.ar    1  UNL1       -0.1991
      7 C         138.3266  138.8832  166.5012 C.ar    1  UNL1        0.1298
      8 N         137.3811  138.0553  167.3201 N.pl3   1  UNL1       -0.3425
      9 C         139.2232  139.8815  167.1718 C.ar    1  UNL1        0.0522
     10 C         139.1743  140.0518  168.6613 C.ar    1  UNL1        0.0443
     11 C         140.0709  141.0500  169.3318 C.ar    1  UNL1        0.1726
     12 H         136.7927  137.4002  166.8799 H       1  UNL1        0.1437
     13 H         137.3490  138.1671  168.2977 H       1  UNL1        0.1437
     14 N         139.3699  139.3705  162.7033 N.pl3   1  UNL1       -0.2747
     15 C         140.4603  138.5524  162.0774 C.3     1  UNL1        0.1151
     16 C         140.5092  138.3821  160.5878 C.3     1  UNL1        0.1150
     17 N         139.4677  139.0299  159.7243 N.am    1  UNL1       -0.2741
     18 C         139.5166  138.8595  158.2348 C.2     1  UNL1        0.2529
     19 O         138.4751  139.5073  157.3712 O.2     1  UNL1       -0.2722
     20 C         138.3773  139.8479  160.3503 C.3     1  UNL1        0.1150
     21 C         138.3284  140.0183  161.8397 C.3     1  UNL1        0.1151
     22 C         140.6070  138.0415  157.6089 C.3     1  UNL1        0.1910
     23 C         140.4418  137.0699  156.4779 C.3     1  UNL1        0.0416
     24 C         141.7867  136.4793  156.1741 C.3     1  UNL1        0.0351
     25 C         142.7831  137.0858  157.1172 C.3     1  UNL1        0.1428
     26 O         142.0540  138.0512  158.0039 O.3     1  UNL1       -0.3471
     27 C         143.3278  142.5075  169.5184 C.3     1  UNL1        0.2526
     28 O         141.9129  142.8762  169.1835 O.3     1  UNL1       -0.4683
     29 O         140.0219  141.2203  170.8214 O.3     1  UNL1       -0.4684
     30 C         141.1027  140.6323  171.6794 C.3     1  UNL1        0.2526
@<TRIPOS>BOND
     1    27    28    1
     2    28     1    1
     3     1     2   ar
     4     2     3   ar
     5     3     4   ar
     6     4     5   ar
     7     5    14    1
     8    14    15    1
     9    15    16    1
    10    16    17    1
    11    17    18   am
    12    18    19    2
    13    18    22    1
    14    22    23    1
    15    23    24    1
    16    24    25    1
    17    25    26    1
    18    17    20    1
    19    20    21    1
    20     5     6   ar
    21     6     7   ar
    22     7     8    1
    23     7     9   ar
    24     9    10   ar
    25    10    11   ar
    26    11    29    1
    27    29    30    1
    28    11     1   ar
    29     9     3   ar
    30    21    14    1
    31    26    22    1
    32     8    12    1
    33     8    13    1
@<TRIPOS>MOLECULE
*****
 30 33 0 0 0
SMALL
GASTEIGER

@<TRIPOS>ATOM
      1 C         140.6496  141.9007  167.9903 C.ar    1  UNL1        0.1739
      2 C         140.8945  142.6748  166.7291 C.ar    1  UNL1        0.0593
      3 C         140.4315  142.1278  165.4114 C.ar    1  UNL1        0.0901
      4 N         140.6764  142.9020  164.1501 N.ar    1  UNL1       -0.2134
      5 C         140.2134  142.3549  162.8324 C.ar    1  UNL1        0.2214
      6 N         139.5054  141.0337  162.7760 N.ar    1  UNL1       -0.1991
      7 C         139.2605  140.2595  164.0372 C.ar    1  UNL1        0.1298
      8 N         138.5526  138.9383  163.9807 N.pl3   1  UNL1       -0.3425
      9 C         139.7235  140.8066  165.3549 C.ar    1  UNL1        0.0522
     10 C         139.4786  140.0324  166.6161 C.ar    1  UNL1        0.0443
     11 C         139.9417  140.5795  167.9338 C.ar    1  UNL1        0.1726
     12 H         138.2487  138.5793  163.1158 H       1  UNL1        0.1437
     13 H         138.3918  138.4302  164.8085 H       1  UNL1        0.1437
     14 N         140.4583  143.1291  161.5712 N.pl3   1  UNL1       -0.2747
     15 C         139.4346  143.1201  160.4749 C.3     1  UNL1        0.1151
     16 C         139.6795  143.8943  159.2137 C.3     1  UNL1        0.1150
     17 N         140.9482  144.6774  159.0488 N.am    1  UNL1       -0.2741
     18 C         141.1931  145.4515  157.7876 C.2     1  UNL1        0.2529
     19 O         142.4618  146.2347  157.6226 O.2     1  UNL1       -0.2722
     20 C         141.9719  144.6864  160.1451 C.3     1  UNL1        0.1150
     21 C         141.7270  143.9122  161.4063 C.3     1  UNL1        0.1151
     22 C         140.1693  145.4426  156.6913 C.3     1  UNL1        0.1910
     23 C         139.2443  146.5699  156.3394 C.3     1  UNL1        0.0416
     24 C         138.3942  146.1287  155.1850 C.3     1  UNL1        0.0351
     25 C         138.7937  144.7288  154.8234 C.3     1  UNL1        0.1428
     26 O         139.8908  144.3048  155.7543 O.3     1  UNL1       -0.3471
     27 C         140.3267  143.5285  169.9893 C.3     1  UNL1        0.2526
     28 O         141.1126  142.4477  169.3080 O.3     1  UNL1       -0.4683
     29 O         139.6967  139.8053  169.1951 O.3     1  UNL1       -0.4684
     30 C         138.5440  140.1659  170.0845 C.3     1  UNL1        0.2526
@<TRIPOS>BOND
     1    27    28    1
     2    28     1    1
     3     1     2   ar
     4     2     3   ar
     5     3     4   ar
     6     4     5   ar
     7     5    14    1
     8    14    15    1
     9    15    16    1
    10    16    17    1
    11    17    18   am
    12    18    19    2
    13    18    22    1
    14    22    23    1
    15    23    24    1
    16    24    25    1
    17    25    26    1
    18    17    20    1
    19    20    21    1
    20     5     6   ar
    21     6     7   ar
    22     7     8    1
    23     7     9   ar
    24     9    10   ar
    25    10    11   ar
    26    11    29    1
    27    29    30    1
    28    11     1   ar
    29     9     3   ar
    30    21    14    1
    31    26    22    1
    32     8    12    1
    33     8    13    1
@<TRIPOS>MOLECULE
*****
 30 33 0 0 0
SMALL
GASTEIGER

@<TRIPOS>ATOM
      1 C         142.2996  140.5262  168.7436 C.ar    1  UNL1        0.1739
      2 C         142.7574  140.3308  167.3286 C.ar    1  UNL1        0.0593
      3 C         141.7560  140.0442  166.2492 C.ar    1  UNL1        0.0901
      4 N         142.2139  139.8488  164.8341 N.ar    1  UNL1       -0.2134
      5 C         141.2125  139.5622  163.7547 C.ar    1  UNL1        0.2214
      6 N         139.7533  139.4711  164.0903 N.ar    1  UNL1       -0.1991
      7 C         139.2956  139.6665  165.5053 C.ar    1  UNL1        0.1298
      8 N         137.8365  139.5754  165.8409 N.pl3   1  UNL1       -0.3425
      9 C         140.2969  139.9531  166.5847 C.ar    1  UNL1        0.0522
     10 C         139.8392  140.1485  167.9997 C.ar    1  UNL1        0.0443
     11 C         140.8405  140.4351  169.0792 C.ar    1  UNL1        0.1726
     12 H         137.1792  139.3873  165.1324 H       1  UNL1        0.1437
     13 H         137.5360  139.7036  166.7696 H       1  UNL1        0.1437
     14 N         141.6703  139.3668  162.3397 N.pl3   1  UNL1       -0.2747
     15 C         141.0597  138.2871  161.4963 C.3     1  UNL1        0.1151
     16 C         141.5175  138.0917  160.0812 C.3     1  UNL1        0.1150
     17 N         142.5858  138.9760  159.5097 N.am    1  UNL1       -0.2741
     18 C         143.0436  138.7805  158.0947 C.2     1  UNL1        0.2529
     19 O         144.1120  139.6648  157.5231 O.2     1  UNL1       -0.2722
     20 C         143.1964  140.0557  160.3532 C.3     1  UNL1        0.1150
     21 C         142.7386  140.2511  161.7681 C.3     1  UNL1        0.1151
     22 C         142.4331  137.7008  157.2513 C.3     1  UNL1        0.1910
     23 C         141.2317  137.8475  156.3650 C.3     1  UNL1        0.0416
     24 C         140.9729  136.5221  155.7120 C.3     1  UNL1        0.0351
     25 C         142.0142  135.5563  156.1946 C.3     1  UNL1        0.1428
     26 O         142.9166  136.2848  157.1459 O.3     1  UNL1       -0.3471
     27 C         143.9766  142.1507  169.8833 C.3     1  UNL1        0.2526
     28 O         143.3010  140.8128  169.8230 O.3     1  UNL1       -0.4683
     29 O         140.3827  140.6305  170.4942 O.3     1  UNL1       -0.4684
     30 C         140.4411  141.9925  171.1200 C.3     1  UNL1        0.2526
@<TRIPOS>BOND
     1    27    28    1
     2    28     1    1
     3     1     2   ar
     4     2     3   ar
     5     3     4   ar
     6     4     5   ar
     7     5    14    1
     8    14    15    1
     9    15    16    1
    10    16    17    1
    11    17    18   am
    12    18    19    2
    13    18    22    1
    14    22    23    1
    15    23    24    1
    16    24    25    1
    17    25    26    1
    18    17    20    1
    19    20    21    1
    20     5     6   ar
    21     6     7   ar
    22     7     8    1
    23     7     9   ar
    24     9    10   ar
    25    10    11   ar
    26    11    29    1
    27    29    30    1
    28    11     1   ar
    29     9     3   ar
    30    21    14    1
    31    26    22    1
    32     8    12    1
    33     8    13    1
@<TRIPOS>MOLECULE
*****
 30 33 0 0 0
SMALL
GASTEIGER

@<TRIPOS>ATOM
      1 C         142.2179  140.5817  168.0759 C.ar    1  UNL1        0.1739
      2 C         141.9180  139.8983  166.7748 C.ar    1  UNL1        0.0593
      3 C         142.3532  140.5224  165.4820 C.ar    1  UNL1        0.0901
      4 N         142.0532  139.8390  164.1808 N.ar    1  UNL1       -0.2134
      5 C         142.4884  140.4631  162.8881 C.ar    1  UNL1        0.2214
      6 N         143.2235  141.7707  162.8966 N.ar    1  UNL1       -0.1991
      7 C         143.5235  142.4540  164.1978 C.ar    1  UNL1        0.1298
      8 N         144.2586  143.7615  164.2062 N.pl3   1  UNL1       -0.3425
      9 C         143.0883  141.8299  165.4905 C.ar    1  UNL1        0.0522
     10 C         143.3882  142.5132  166.7916 C.ar    1  UNL1        0.0443
     11 C         142.9531  141.8891  168.0843 C.ar    1  UNL1        0.1726
     12 H         144.5442  144.1711  163.3577 H       1  UNL1        0.1437
     13 H         144.4555  144.2100  165.0602 H       1  UNL1        0.1437
     14 N         142.1884  139.7798  161.5870 N.pl3   1  UNL1       -0.2747
     15 C         143.3058  139.2117  160.7631 C.3     1  UNL1        0.1151
     16 C         143.0058  138.5283  159.4619 C.3     1  UNL1        0.1150
     17 N         141.5885  138.4131  158.9846 N.am    1  UNL1       -0.2741
     18 C         141.2885  137.7297  157.6835 C.2     1  UNL1        0.2529
     19 O         139.8711  137.6145  157.2061 O.2     1  UNL1       -0.2722
     20 C         140.4711  138.9812  159.8085 C.3     1  UNL1        0.1150
     21 C         140.7710  139.6645  161.1096 C.3     1  UNL1        0.1151
     22 C         142.4059  137.1616  156.8596 C.3     1  UNL1        0.1910
     23 C         142.7259  135.7057  156.6924 C.3     1  UNL1        0.0416
     24 C         143.9173  135.5939  155.7878 C.3     1  UNL1        0.0351
     25 C         144.3335  136.9808  155.3960 C.3     1  UNL1        0.1428
     26 O         143.3994  137.9496  156.0584 O.3     1  UNL1       -0.3471
     27 C         142.5781  138.8338  169.9641 C.3     1  UNL1        0.2526
     28 O         141.7828  139.9575  169.3686 O.3     1  UNL1       -0.4683
     29 O         143.2530  142.5725  169.3855 O.3     1  UNL1       -0.4684
     30 C         142.1502  143.2363  170.1557 C.3     1  UNL1        0.2526
@<TRIPOS>BOND
     1    27    28    1
     2    28     1    1
     3     1     2   ar
     4     2     3   ar
     5     3     4   ar
     6     4     5   ar
     7     5    14    1
     8    14    15    1
     9    15    16    1
    10    16    17    1
    11    17    18   am
    12    18    19    2
    13    18    22    1
    14    22    23    1
    15    23    24    1
    16    24    25    1
    17    25    26    1
    18    17    20    1
    19    20    21    1
    20     5     6   ar
    21     6     7   ar
    22     7     8    1
    23     7     9   ar
    24     9    10   ar
    25    10    11   ar
    26    11    29    1
    27    29    30    1
    28    11     1   ar
    29     9     3   ar
    30    21    14    1
    31    26    22    1
    32     8    12    1
    33     8    13    1
@<TRIPOS>MOLECULE
*****
 30 33 0 0 0
SMALL
GASTEIGER

@<TRIPOS>ATOM
      1 C         143.5383  132.3966  156.2873 C.ar    1  UNL1        0.1739
      2 C         143.8235  133.6253  157.0990 C.ar    1  UNL1        0.0593
      3 C         143.0114  134.8687  156.8882 C.ar    1  UNL1        0.0901
      4 N         143.2966  136.0974  157.7000 N.ar    1  UNL1       -0.2134
      5 C         142.4844  137.3408  157.4892 C.ar    1  UNL1        0.2214
      6 N         141.3870  137.3554  156.4666 N.ar    1  UNL1       -0.1991
      7 C         141.1018  136.1267  155.6549 C.ar    1  UNL1        0.1298
      8 N         140.0045  136.1414  154.6324 N.pl3   1  UNL1       -0.3425
      9 C         141.9140  134.8833  155.8657 C.ar    1  UNL1        0.0522
     10 C         141.6288  133.6546  155.0540 C.ar    1  UNL1        0.0443
     11 C         142.4410  132.4113  155.2648 C.ar    1  UNL1        0.1726
     12 H         139.4714  136.9574  154.4941 H       1  UNL1        0.1437
     13 H         139.8173  135.3349  154.0996 H       1  UNL1        0.1437
     14 N         142.7696  138.5695  158.3009 N.pl3   1  UNL1       -0.2747
     15 C         143.3473  138.4405  159.6792 C.3     1  UNL1        0.1151
     16 C         143.6325  139.6693  160.4909 C.3     1  UNL1        0.1150
     17 N         143.3400  141.0270  159.9243 N.am    1  UNL1       -0.2741
     18 C         143.6252  142.2557  160.7360 C.2     1  UNL1        0.2529
     19 O         143.3328  143.6135  160.1694 O.2     1  UNL1       -0.2722
     20 C         142.7624  141.1560  158.5460 C.3     1  UNL1        0.1150
     21 C         142.4772  139.9273  157.7343 C.3     1  UNL1        0.1151
     22 C         144.2029  142.1267  162.1143 C.3     1  UNL1        0.1910
     23 C         143.4690  142.3540  163.4027 C.3     1  UNL1        0.0416
     24 C         144.4284  142.1155  164.5308 C.3     1  UNL1        0.0351
     25 C         145.7551  141.7408  163.9397 C.3     1  UNL1        0.1428
     26 O         145.6157  141.7476  162.4462 O.3     1  UNL1       -0.3471
     27 C         144.3910  130.5040  157.8496 C.3     1  UNL1        0.2526
     28 O         144.3505  131.1532  156.4980 O.3     1  UNL1       -0.4683
     29 O         142.1557  131.1825  154.4530 O.3     1  UNL1       -0.4684
     30 C         141.2121  130.1404  154.9761 C.3     1  UNL1        0.2526
@<TRIPOS>BOND
     1    27    28    1
     2    28     1    1
     3     1     2   ar
     4     2     3   ar
     5     3     4   ar
     6     4     5   ar
     7     5    14    1
     8    14    15    1
     9    15    16    1
    10    16    17    1
    11    17    18   am
    12    18    19    2
    13    18    22    1
    14    22    23    1
    15    23    24    1
    16    24    25    1
    17    25    26    1
    18    17    20    1
    19    20    21    1
    20     5     6   ar
    21     6     7   ar
    22     7     8    1
    23     7     9   ar
    24     9    10   ar
    25    10    11   ar
    26    11    29    1
    27    29    30    1
    28    11     1   ar
    29     9     3   ar
    30    21    14    1
    31    26    22    1
    32     8    12    1
    33     8    13    1
@<TRIPOS>MOLECULE
*****
 30 33 0 0 0
SMALL
GASTEIGER

@<TRIPOS>ATOM
      1 C         143.5503  133.7819  156.0402 C.ar    1  UNL1        0.1739
      2 C         143.7880  135.0086  156.8700 C.ar    1  UNL1        0.0593
      3 C         142.7604  136.1008  156.9055 C.ar    1  UNL1        0.0901
      4 N         142.9981  137.3275  157.7354 N.ar    1  UNL1       -0.2134
      5 C         141.9706  138.4197  157.7708 C.ar    1  UNL1        0.2214
      6 N         140.7053  138.2852  156.9763 N.ar    1  UNL1       -0.1991
      7 C         140.4677  137.0585  156.1465 C.ar    1  UNL1        0.1298
      8 N         139.2025  136.9240  155.3521 N.pl3   1  UNL1       -0.3425
      9 C         141.4952  135.9663  156.1110 C.ar    1  UNL1        0.0522
     10 C         141.2576  134.7396  155.2812 C.ar    1  UNL1        0.0443
     11 C         142.2851  133.6474  155.2458 C.ar    1  UNL1        0.1726
     12 H         138.5281  137.6409  155.3753 H       1  UNL1        0.1437
     13 H         139.0465  136.1189  154.8074 H       1  UNL1        0.1437
     14 N         142.2083  139.6464  158.6006 N.pl3   1  UNL1       -0.2747
     15 C         141.0588  140.5367  158.9695 C.3     1  UNL1        0.1151
     16 C         141.2965  141.7635  159.7994 C.3     1  UNL1        0.1150
     17 N         142.6837  142.0999  160.2604 N.am    1  UNL1       -0.2741
     18 C         142.9213  143.3266  161.0902 C.2     1  UNL1        0.2529
     19 O         144.3085  143.6630  161.5513 O.2     1  UNL1       -0.2722
     20 C         143.8332  141.2096  159.8915 C.3     1  UNL1        0.1150
     21 C         143.5955  139.9829  159.0617 C.3     1  UNL1        0.1151
     22 C         141.7718  144.2168  161.4591 C.3     1  UNL1        0.1910
     23 C         141.0663  144.2431  162.7826 C.3     1  UNL1        0.0416
     24 C         139.9844  145.2797  162.7107 C.3     1  UNL1        0.0351
     25 C         140.0213  145.8941  161.3428 C.3     1  UNL1        0.1428
     26 O         141.1260  145.2372  160.5693 O.3     1  UNL1       -0.3471
     27 C         144.9958  132.0117  157.2757 C.3     1  UNL1        0.2526
     28 O         144.5778  132.6897  156.0047 O.3     1  UNL1       -0.4683
     29 O         142.0474  132.4207  154.4158 O.3     1  UNL1       -0.4684
     30 C         140.8355  131.5718  154.6622 C.3     1  UNL1        0.2526
@<TRIPOS>BOND
     1    27    28    1
     2    28     1    1
     3     1     2   ar
     4     2     3   ar
     5     3     4   ar
     6     4     5   ar
     7     5    14    1
     8    14    15    1
     9    15    16    1
    10    16    17    1
    11    17    18   am
    12    18    19    2
    13    18    22    1
    14    22    23    1
    15    23    24    1
    16    24    25    1
    17    25    26    1
    18    17    20    1
    19    20    21    1
    20     5     6   ar
    21     6     7   ar
    22     7     8    1
    23     7     9   ar
    24     9    10   ar
    25    10    11   ar
    26    11    29    1
    27    29    30    1
    28    11     1   ar
    29     9     3   ar
    30    21    14    1
    31    26    22    1
    32     8    12    1
    33     8    13    1
@<TRIPOS>MOLECULE
*****
 30 33 0 0 0
SMALL
GASTEIGER

@<TRIPOS>ATOM
      1 C         140.5903  141.5508  169.1897 C.ar    1  UNL1        0.1739
      2 C         141.1962  142.0287  167.9035 C.ar    1  UNL1        0.0593
      3 C         140.8032  141.3876  166.6055 C.ar    1  UNL1        0.0901
      4 N         141.4091  141.8656  165.3192 N.ar    1  UNL1       -0.2134
      5 C         141.0162  141.2245  164.0213 C.ar    1  UNL1        0.2214
      6 N         140.0173  140.1055  164.0097 N.ar    1  UNL1       -0.1991
      7 C         139.4114  139.6276  165.2959 C.ar    1  UNL1        0.1298
      8 N         138.4126  138.5086  165.2843 N.pl3   1  UNL1       -0.3425
      9 C         139.8044  140.2687  166.5939 C.ar    1  UNL1        0.0522
     10 C         139.1985  139.7908  167.8801 C.ar    1  UNL1        0.0443
     11 C         139.5915  140.4318  169.1780 C.ar    1  UNL1        0.1726
     12 H         138.1547  138.0879  164.4324 H       1  UNL1        0.1437
     13 H         138.0149  138.1949  166.1285 H       1  UNL1        0.1437
     14 N         141.6220  141.7024  162.7351 N.pl3   1  UNL1       -0.2747
     15 C         140.8265  142.5748  161.8098 C.3     1  UNL1        0.1151
     16 C         141.4324  143.0527  160.5235 C.3     1  UNL1        0.1150
     17 N         142.8338  142.6583  160.1625 N.am    1  UNL1       -0.2741
     18 C         143.4397  143.1362  158.8763 C.2     1  UNL1        0.2529
     19 O         144.8412  142.7417  158.5152 O.2     1  UNL1       -0.2722
     20 C         143.6294  141.7859  161.0878 C.3     1  UNL1        0.1150
     21 C         143.0235  141.3080  162.3740 C.3     1  UNL1        0.1151
     22 C         142.6441  144.0085  157.9510 C.3     1  UNL1        0.1910
     23 C         141.8342  143.5417  156.7778 C.3     1  UNL1        0.0416
     24 C         141.2083  144.7455  156.1383 C.3     1  UNL1        0.0351
     25 C         141.6314  145.9563  156.9161 C.3     1  UNL1        0.1428
     26 O         142.5187  145.5008  158.0364 O.3     1  UNL1       -0.3471
     27 C         142.2450  142.9984  170.5740 C.3     1  UNL1        0.2526
     28 O         140.9833  142.1919  170.4876 O.3     1  UNL1       -0.4683
     29 O         138.9856  139.9539  170.4643 O.3     1  UNL1       -0.4684
     30 C         137.5350  139.5753  170.5150 C.3     1  UNL1        0.2526
@<TRIPOS>BOND
     1    27    28    1
     2    28     1    1
     3     1     2   ar
     4     2     3   ar
     5     3     4   ar
     6     4     5   ar
     7     5    14    1
     8    14    15    1
     9    15    16    1
    10    16    17    1
    11    17    18   am
    12    18    19    2
    13    18    22    1
    14    22    23    1
    15    23    24    1
    16    24    25    1
    17    25    26    1
    18    17    20    1
    19    20    21    1
    20     5     6   ar
    21     6     7   ar
    22     7     8    1
    23     7     9   ar
    24     9    10   ar
    25    10    11   ar
    26    11    29    1
    27    29    30    1
    28    11     1   ar
    29     9     3   ar
    30    21    14    1
    31    26    22    1
    32     8    12    1
    33     8    13    1
