@<TRIPOS>MOLECULE
*****
 27 30 0 0 0
SMALL
GASTEIGER

@<TRIPOS>ATOM
      1 C         139.9344  140.7705  166.0973 C.ar    1  UNL1        0.0968
      2 C         140.0008  140.6638  167.5920 C.ar    1  UNL1        0.1002
      3 N         139.0166  139.6184  168.0263 N.ar    1  UNL1       -0.2239
      4 C         138.3420  139.0790  166.7998 C.ar    1  UNL1        0.1785
      5 N         138.9093  139.7910  165.6077 N.ar    1  UNL1       -0.3097
      6 N         140.6245  145.4230  163.8885 N.pl3   1  UNL1       -0.3274
      7 C         141.0951  144.0207  164.1379 C.ar    1  UNL1        0.2137
      8 N         142.3813  143.5424  163.5323 N.ar    1  UNL1       -0.2125
      9 C         142.8519  142.1402  163.7816 C.ar    1  UNL1        0.1034
     10 C         142.0363  141.2162  164.6366 C.ar    1  UNL1        0.0414
     11 C         140.7501  141.6945  165.2422 C.ar    1  UNL1        0.1030
     12 N         140.2795  143.0967  164.9929 N.ar    1  UNL1       -0.2125
     13 H         141.1598  146.0294  163.3274 H       1  UNL1        0.1452
     14 H         139.7802  145.7369  164.2861 H       1  UNL1        0.1452
     15 C         140.8944  141.4623  168.4942 C.ar    1  UNL1        0.0193
     16 C         140.4052  142.7513  169.0849 C.ar    1  UNL1        0.0039
     17 C         141.2988  143.5498  169.9870 C.ar    1  UNL1        0.0297
     18 C         142.6817  143.0593  170.2985 C.ar    1  UNL1        0.1401
     19 F         143.5753  143.8578  171.2006 F       1  UNL1       -0.2042
     20 C         143.1710  141.7702  169.7077 C.ar    1  UNL1        0.0297
     21 C         142.2773  140.9718  168.8056 C.ar    1  UNL1        0.0039
     22 C         138.5198  139.5635  164.1772 C.3     1  UNL1        0.0870
     23 C         138.7793  138.2346  163.5315 C.3     1  UNL1        0.0226
     24 C         138.3897  138.0071  162.1009 C.3     1  UNL1        0.0019
     25 C         137.7407  139.1084  161.3160 C.3     1  UNL1        0.0001
     26 C         137.4812  140.4372  161.9617 C.3     1  UNL1        0.0019
     27 C         137.8707  140.6647  163.3923 C.3     1  UNL1        0.0226
@<TRIPOS>BOND
     1     6     7    1
     2     7     8   ar
     3     8     9   ar
     4     9    10   ar
     5    10    11   ar
     6    11     1    1
     7     1     2   ar
     8     2    15    1
     9    15    16   ar
    10    16    17   ar
    11    17    18   ar
    12    18    19    1
    13    18    20   ar
    14    20    21   ar
    15     2     3   ar
    16     3     4   ar
    17     4     5   ar
    18     5    22    1
    19    22    23    1
    20    23    24    1
    21    24    25    1
    22    25    26    1
    23    26    27    1
    24    11    12   ar
    25    12     7   ar
    26     5     1   ar
    27    27    22    1
    28    21    15   ar
    29     6    13    1
    30     6    14    1
@<TRIPOS>MOLECULE
*****
 27 30 0 0 0
SMALL
GASTEIGER

@<TRIPOS>ATOM
      1 C         139.9435  140.7669  166.1074 C.ar    1  UNL1        0.0968
      2 C         140.0235  140.6568  167.6012 C.ar    1  UNL1        0.1002
      3 N         139.0532  139.6008  168.0409 N.ar    1  UNL1       -0.2239
      4 C         138.3733  139.0583  166.8187 C.ar    1  UNL1        0.1785
      5 N         138.9236  139.7790  165.6238 N.ar    1  UNL1       -0.3097
      6 N         143.8068  141.5782  162.7285 N.pl3   1  UNL1       -0.3274
      7 C         142.6746  142.1066  163.5586 C.ar    1  UNL1        0.2137
      8 N         142.3420  143.5689  163.5295 N.ar    1  UNL1       -0.2125
      9 C         141.2099  144.0973  164.3597 C.ar    1  UNL1        0.1034
     10 C         140.4104  143.1633  165.2189 C.ar    1  UNL1        0.0414
     11 C         140.7430  141.7009  165.2481 C.ar    1  UNL1        0.1030
     12 N         141.8751  141.1726  164.4179 N.ar    1  UNL1       -0.2125
     13 H         144.3315  142.1912  162.1645 H       1  UNL1        0.1452
     14 H         144.0251  140.6184  162.7476 H       1  UNL1        0.1452
     15 C         140.9171  141.4613  168.4980 C.ar    1  UNL1        0.0193
     16 C         140.4000  142.7111  169.1466 C.ar    1  UNL1        0.0039
     17 C         141.2936  143.5156  170.0434 C.ar    1  UNL1        0.0297
     18 C         142.7043  143.0704  170.2916 C.ar    1  UNL1        0.1401
     19 F         143.5979  143.8750  171.1883 F       1  UNL1       -0.2042
     20 C         143.2215  141.8206  169.6430 C.ar    1  UNL1        0.0297
     21 C         142.3279  141.0161  168.7462 C.ar    1  UNL1        0.0039
     22 C         138.5241  139.5516  164.1960 C.3     1  UNL1        0.0870
     23 C         138.7692  138.2194  163.5517 C.3     1  UNL1        0.0226
     24 C         138.3698  137.9920  162.1239 C.3     1  UNL1        0.0019
     25 C         137.7252  139.0968  161.3403 C.3     1  UNL1        0.0001
     26 C         137.4801  140.4290  161.9846 C.3     1  UNL1        0.0019
     27 C         137.8796  140.6564  163.4124 C.3     1  UNL1        0.0226
@<TRIPOS>BOND
     1     6     7    1
     2     7     8   ar
     3     8     9   ar
     4     9    10   ar
     5    10    11   ar
     6    11     1    1
     7     1     2   ar
     8     2    15    1
     9    15    16   ar
    10    16    17   ar
    11    17    18   ar
    12    18    19    1
    13    18    20   ar
    14    20    21   ar
    15     2     3   ar
    16     3     4   ar
    17     4     5   ar
    18     5    22    1
    19    22    23    1
    20    23    24    1
    21    24    25    1
    22    25    26    1
    23    26    27    1
    24    11    12   ar
    25    12     7   ar
    26     5     1   ar
    27    27    22    1
    28    21    15   ar
    29     6    13    1
    30     6    14    1
@<TRIPOS>MOLECULE
*****
 27 30 0 0 0
SMALL
GASTEIGER

@<TRIPOS>ATOM
      1 C         141.8085  140.1074  165.7906 C.ar    1  UNL1        0.0968
      2 C         141.9933  140.0571  167.2784 C.ar    1  UNL1        0.1002
      3 N         143.0263  139.0128  167.5821 N.ar    1  UNL1       -0.2239
      4 C         143.4800  138.4177  166.2821 C.ar    1  UNL1        0.1785
      5 N         142.7273  139.0942  165.1749 N.ar    1  UNL1       -0.3097
      6 N         137.2304  140.9143  163.4690 N.pl3   1  UNL1       -0.3274
      7 C         138.5806  141.4156  163.8881 C.ar    1  UNL1        0.2137
      8 N         138.9921  142.8215  163.5655 N.ar    1  UNL1       -0.2125
      9 C         140.3423  143.3227  163.9845 C.ar    1  UNL1        0.1034
     10 C         141.2811  142.4180  164.7262 C.ar    1  UNL1        0.0414
     11 C         140.8697  141.0122  165.0489 C.ar    1  UNL1        0.1030
     12 N         139.5194  140.5109  164.6298 N.ar    1  UNL1       -0.2125
     13 H         136.6142  141.5081  162.9822 H       1  UNL1        0.1452
     14 H         136.9604  139.9916  163.6808 H       1  UNL1        0.1452
     15 C         141.2718  140.9026  168.2855 C.ar    1  UNL1        0.0193
     16 C         140.1023  140.3397  169.0374 C.ar    1  UNL1        0.0039
     17 C         139.3807  141.1852  170.0446 C.ar    1  UNL1        0.0297
     18 C         139.8287  142.5938  170.2999 C.ar    1  UNL1        0.1401
     19 F         139.1071  143.4394  171.3071 F       1  UNL1       -0.2042
     20 C         140.9983  143.1569  169.5481 C.ar    1  UNL1        0.0297
     21 C         141.7197  142.3112  168.5409 C.ar    1  UNL1        0.0039
     22 C         142.8687  138.8077  163.7093 C.3     1  UNL1        0.0870
     23 C         144.0489  139.3399  162.9516 C.3     1  UNL1        0.0226
     24 C         144.1903  139.0535  161.4860 C.3     1  UNL1        0.0019
     25 C         143.1515  138.2349  160.7781 C.3     1  UNL1        0.0001
     26 C         141.9714  137.7028  161.5358 C.3     1  UNL1        0.0019
     27 C         141.8301  137.9892  163.0014 C.3     1  UNL1        0.0226
@<TRIPOS>BOND
     1     6     7    1
     2     7     8   ar
     3     8     9   ar
     4     9    10   ar
     5    10    11   ar
     6    11     1    1
     7     1     2   ar
     8     2    15    1
     9    15    16   ar
    10    16    17   ar
    11    17    18   ar
    12    18    19    1
    13    18    20   ar
    14    20    21   ar
    15     2     3   ar
    16     3     4   ar
    17     4     5   ar
    18     5    22    1
    19    22    23    1
    20    23    24    1
    21    24    25    1
    22    25    26    1
    23    26    27    1
    24    11    12   ar
    25    12     7   ar
    26     5     1   ar
    27    27    22    1
    28    21    15   ar
    29     6    13    1
    30     6    14    1
@<TRIPOS>MOLECULE
*****
 27 30 0 0 0
SMALL
GASTEIGER

@<TRIPOS>ATOM
      1 C         140.0613  141.0047  166.2069 C.ar    1  UNL1        0.0968
      2 C         138.9929  140.0831  165.6977 C.ar    1  UNL1        0.1002
      3 N         138.4345  139.3292  166.8681 N.ar    1  UNL1       -0.2239
      4 C         139.1579  139.7849  168.1007 C.ar    1  UNL1        0.1785
      5 N         140.1633  140.8204  167.6920 N.ar    1  UNL1       -0.3097
      6 N         140.6148  145.5826  163.8118 N.pl3   1  UNL1       -0.3274
      7 C         141.1601  144.2344  164.1791 C.ar    1  UNL1        0.2137
      8 N         142.5274  143.8269  163.7162 N.ar    1  UNL1       -0.2125
      9 C         143.0727  142.4787  164.0835 C.ar    1  UNL1        0.1034
     10 C         142.2507  141.5379  164.9137 C.ar    1  UNL1        0.0414
     11 C         140.8834  141.9454  165.3766 C.ar    1  UNL1        0.1030
     12 N         140.3381  143.2937  165.0093 N.ar    1  UNL1       -0.2125
     13 H         141.1543  146.2000  163.2669 H       1  UNL1        0.1452
     14 H         139.7173  145.8501  164.1156 H       1  UNL1        0.1452
     15 C         138.5590  139.9405  164.2689 C.ar    1  UNL1        0.0193
     16 C         138.7809  138.6466  163.5433 C.ar    1  UNL1        0.0039
     17 C         138.3470  138.5040  162.1145 C.ar    1  UNL1        0.0297
     18 C         137.6911  139.6553  161.4113 C.ar    1  UNL1        0.1401
     19 F         137.2572  139.5127  159.9826 F       1  UNL1       -0.2042
     20 C         137.4692  140.9493  162.1370 C.ar    1  UNL1        0.0297
     21 C         137.9031  141.0918  163.5657 C.ar    1  UNL1        0.0039
     22 C         141.1052  141.5444  168.6077 C.3     1  UNL1        0.0870
     23 C         142.4730  140.9871  168.8697 C.3     1  UNL1        0.0226
     24 C         143.4150  141.7111  169.7854 C.3     1  UNL1        0.0019
     25 C         142.9892  142.9923  170.4391 C.3     1  UNL1        0.0001
     26 C         141.6215  143.5495  170.1771 C.3     1  UNL1        0.0019
     27 C         140.6795  142.8255  169.2613 C.3     1  UNL1        0.0226
@<TRIPOS>BOND
     1     6     7    1
     2     7     8   ar
     3     8     9   ar
     4     9    10   ar
     5    10    11   ar
     6    11     1    1
     7     1     2   ar
     8     2    15    1
     9    15    16   ar
    10    16    17   ar
    11    17    18   ar
    12    18    19    1
    13    18    20   ar
    14    20    21   ar
    15     2     3   ar
    16     3     4   ar
    17     4     5   ar
    18     5    22    1
    19    22    23    1
    20    23    24    1
    21    24    25    1
    22    25    26    1
    23    26    27    1
    24    11    12   ar
    25    12     7   ar
    26     5     1   ar
    27    27    22    1
    28    21    15   ar
    29     6    13    1
    30     6    14    1
@<TRIPOS>MOLECULE
*****
 27 30 0 0 0
SMALL
GASTEIGER

@<TRIPOS>ATOM
      1 C         141.7389  140.1394  165.6563 C.ar    1  UNL1        0.0968
      2 C         142.6572  139.1445  165.0106 C.ar    1  UNL1        0.1002
      3 N         143.4096  138.4350  166.0970 N.ar    1  UNL1       -0.2239
      4 C         142.9563  138.9913  167.4143 C.ar    1  UNL1        0.1785
      5 N         141.9237  140.0447  167.1419 N.ar    1  UNL1       -0.3097
      6 N         137.1303  141.0415  163.4320 N.pl3   1  UNL1       -0.3274
      7 C         138.4961  141.5172  163.8298 C.ar    1  UNL1        0.2137
      8 N         138.9235  142.9197  163.5131 N.ar    1  UNL1       -0.2125
      9 C         140.2894  143.3955  163.9109 C.ar    1  UNL1        0.1034
     10 C         141.2278  142.4687  164.6253 C.ar    1  UNL1        0.0414
     11 C         140.8004  141.0662  164.9419 C.ar    1  UNL1        0.1030
     12 N         139.4346  140.5905  164.5442 N.ar    1  UNL1       -0.2125
     13 H         136.5144  141.6498  162.9631 H       1  UNL1        0.1452
     14 H         136.8498  140.1210  163.6399 H       1  UNL1        0.1452
     15 C         142.7983  138.9018  163.5371 C.ar    1  UNL1        0.0193
     16 C         143.9308  139.5282  162.7789 C.ar    1  UNL1        0.0039
     17 C         144.0720  139.2855  161.3054 C.ar    1  UNL1        0.0297
     18 C         143.0805  138.4164  160.5901 C.ar    1  UNL1        0.1401
     19 F         143.2216  138.1737  159.1166 F       1  UNL1       -0.2042
     20 C         141.9479  137.7899  161.3483 C.ar    1  UNL1        0.0297
     21 C         141.8069  138.0327  162.8218 C.ar    1  UNL1        0.0039
     22 C         141.2027  140.8601  168.1739 C.3     1  UNL1        0.0870
     23 C         140.0799  140.2512  168.9606 C.3     1  UNL1        0.0226
     24 C         139.3589  141.0667  169.9926 C.3     1  UNL1        0.0019
     25 C         139.7604  142.4910  170.2380 C.3     1  UNL1        0.0001
     26 C         140.8831  143.0998  169.4512 C.3     1  UNL1        0.0019
     27 C         141.6041  142.2844  168.4192 C.3     1  UNL1        0.0226
@<TRIPOS>BOND
     1     6     7    1
     2     7     8   ar
     3     8     9   ar
     4     9    10   ar
     5    10    11   ar
     6    11     1    1
     7     1     2   ar
     8     2    15    1
     9    15    16   ar
    10    16    17   ar
    11    17    18   ar
    12    18    19    1
    13    18    20   ar
    14    20    21   ar
    15     2     3   ar
    16     3     4   ar
    17     4     5   ar
    18     5    22    1
    19    22    23    1
    20    23    24    1
    21    24    25    1
    22    25    26    1
    23    26    27    1
    24    11    12   ar
    25    12     7   ar
    26     5     1   ar
    27    27    22    1
    28    21    15   ar
    29     6    13    1
    30     6    14    1
@<TRIPOS>MOLECULE
*****
 27 30 0 0 0
SMALL
GASTEIGER

@<TRIPOS>ATOM
      1 C         141.7463  140.1300  165.6501 C.ar    1  UNL1        0.0968
      2 C         142.6638  139.1332  165.0060 C.ar    1  UNL1        0.1002
      3 N         143.4179  138.4270  166.0934 N.ar    1  UNL1       -0.2239
      4 C         142.9665  138.9873  167.4097 C.ar    1  UNL1        0.1785
      5 N         141.9334  140.0398  167.1356 N.ar    1  UNL1       -0.3097
      6 N         137.1341  141.0255  163.4308 N.pl3   1  UNL1       -0.3274
      7 C         138.5007  141.5023  163.8246 C.ar    1  UNL1        0.2137
      8 N         138.9277  142.9037  163.5027 N.ar    1  UNL1       -0.2125
      9 C         140.2942  143.3806  163.8965 C.ar    1  UNL1        0.1034
     10 C         141.2338  142.4560  164.6123 C.ar    1  UNL1        0.0414
     11 C         140.8068  141.0546  164.9343 C.ar    1  UNL1        0.1030
     12 N         139.4402  140.5778  164.5404 N.ar    1  UNL1       -0.2125
     13 H         136.5174  141.6323  162.9610 H       1  UNL1        0.1452
     14 H         136.8538  140.1057  163.6421 H       1  UNL1        0.1452
     15 C         142.8027  138.8861  163.5330 C.ar    1  UNL1        0.0193
     16 C         141.7945  138.0376  162.8165 C.ar    1  UNL1        0.0039
     17 C         141.9334  137.7904  161.3435 C.ar    1  UNL1        0.0297
     18 C         143.0806  138.3918  160.5871 C.ar    1  UNL1        0.1401
     19 F         143.2196  138.1447  159.1141 F       1  UNL1       -0.2042
     20 C         144.0890  139.2404  161.3036 C.ar    1  UNL1        0.0297
     21 C         143.9499  139.4875  162.7766 C.ar    1  UNL1        0.0039
     22 C         141.2139  140.8583  168.1662 C.3     1  UNL1        0.0870
     23 C         141.6189  142.2820  168.4099 C.3     1  UNL1        0.0226
     24 C         140.8994  143.1005  169.4405 C.3     1  UNL1        0.0019
     25 C         139.7747  142.4955  170.2275 C.3     1  UNL1        0.0001
     26 C         139.3697  141.0720  169.9838 C.3     1  UNL1        0.0019
     27 C         140.0893  140.2534  168.9532 C.3     1  UNL1        0.0226
@<TRIPOS>BOND
     1     6     7    1
     2     7     8   ar
     3     8     9   ar
     4     9    10   ar
     5    10    11   ar
     6    11     1    1
     7     1     2   ar
     8     2    15    1
     9    15    16   ar
    10    16    17   ar
    11    17    18   ar
    12    18    19    1
    13    18    20   ar
    14    20    21   ar
    15     2     3   ar
    16     3     4   ar
    17     4     5   ar
    18     5    22    1
    19    22    23    1
    20    23    24    1
    21    24    25    1
    22    25    26    1
    23    26    27    1
    24    11    12   ar
    25    12     7   ar
    26     5     1   ar
    27    27    22    1
    28    21    15   ar
    29     6    13    1
    30     6    14    1
@<TRIPOS>MOLECULE
*****
 27 30 0 0 0
SMALL
GASTEIGER

@<TRIPOS>ATOM
      1 C         140.0155  141.0463  166.1392 C.ar    1  UNL1        0.0968
      2 C         138.9740  140.1013  165.6174 C.ar    1  UNL1        0.1002
      3 N         138.4531  139.3008  166.7741 N.ar    1  UNL1       -0.2239
      4 C         139.1727  139.7512  168.0108 C.ar    1  UNL1        0.1785
      5 N         140.1383  140.8299  167.6184 N.ar    1  UNL1       -0.3097
      6 N         144.1901  142.2150  163.2744 N.pl3   1  UNL1       -0.3274
      7 C         142.8842  142.6186  163.8924 C.ar    1  UNL1        0.2137
      8 N         142.3598  144.0102  163.6959 N.ar    1  UNL1       -0.2125
      9 C         141.0540  144.4138  164.3139 C.ar    1  UNL1        0.1034
     10 C         140.2725  143.4259  165.1283 C.ar    1  UNL1        0.0414
     11 C         140.7969  142.0343  165.3248 C.ar    1  UNL1        0.1030
     12 N         142.1028  141.6307  164.7068 N.ar    1  UNL1       -0.2125
     13 H         144.7030  142.8635  162.7399 H       1  UNL1        0.1452
     14 H         144.5342  141.3017  163.4034 H       1  UNL1        0.1452
     15 C         138.5311  139.9783  164.1896 C.ar    1  UNL1        0.0193
     16 C         137.9073  141.1518  163.4941 C.ar    1  UNL1        0.0039
     17 C         137.4644  141.0288  162.0662 C.ar    1  UNL1        0.0297
     18 C         137.6454  139.7323  161.3338 C.ar    1  UNL1        0.1401
     19 F         137.2025  139.6093  159.9060 F       1  UNL1       -0.2042
     20 C         138.2693  138.5587  162.0293 C.ar    1  UNL1        0.0297
     21 C         138.7121  138.6819  163.4572 C.ar    1  UNL1        0.0039
     22 C         141.0641  141.5635  168.5430 C.3     1  UNL1        0.0870
     23 C         142.4559  141.0526  168.7714 C.3     1  UNL1        0.0226
     24 C         143.3817  141.7861  169.6959 C.3     1  UNL1        0.0019
     25 C         142.9158  143.0305  170.3921 C.3     1  UNL1        0.0001
     26 C         141.5241  143.5413  170.1636 C.3     1  UNL1        0.0019
     27 C         140.5983  142.8078  169.2391 C.3     1  UNL1        0.0226
@<TRIPOS>BOND
     1     6     7    1
     2     7     8   ar
     3     8     9   ar
     4     9    10   ar
     5    10    11   ar
     6    11     1    1
     7     1     2   ar
     8     2    15    1
     9    15    16   ar
    10    16    17   ar
    11    17    18   ar
    12    18    19    1
    13    18    20   ar
    14    20    21   ar
    15     2     3   ar
    16     3     4   ar
    17     4     5   ar
    18     5    22    1
    19    22    23    1
    20    23    24    1
    21    24    25    1
    22    25    26    1
    23    26    27    1
    24    11    12   ar
    25    12     7   ar
    26     5     1   ar
    27    27    22    1
    28    21    15   ar
    29     6    13    1
    30     6    14    1
@<TRIPOS>MOLECULE
*****
 27 30 0 0 0
SMALL
GASTEIGER

@<TRIPOS>ATOM
      1 C         142.3058  141.1774  165.3336 C.ar    1  UNL1        0.0968
      2 C         142.4806  139.9263  164.5248 C.ar    1  UNL1        0.1002
      3 N         142.4326  138.7571  165.4633 N.ar    1  UNL1       -0.2239
      4 C         142.2282  139.2858  166.8522 C.ar    1  UNL1        0.1785
      5 N         142.1498  140.7815  166.7720 N.ar    1  UNL1       -0.3097
      6 N         139.6598  145.3487  163.7215 N.pl3   1  UNL1       -0.3274
      7 C         140.9667  144.6641  163.9919 C.ar    1  UNL1        0.2137
      8 N         142.2576  145.3805  163.7268 N.ar    1  UNL1       -0.2125
      9 C         143.5646  144.6959  163.9973 C.ar    1  UNL1        0.1034
     10 C         143.5806  143.2949  164.5329 C.ar    1  UNL1        0.0414
     11 C         142.2897  142.5785  164.7980 C.ar    1  UNL1        0.1030
     12 N         140.9828  143.2631  164.5275 N.ar    1  UNL1       -0.2125
     13 H         139.6492  146.2682  163.3699 H       1  UNL1        0.1452
     14 H         138.8125  144.8785  163.8955 H       1  UNL1        0.1452
     15 C         142.6700  139.8565  163.0385 C.ar    1  UNL1        0.0193
     16 C         144.0229  139.5486  162.4685 C.ar    1  UNL1        0.0039
     17 C         144.2123  139.4788  160.9821 C.ar    1  UNL1        0.0297
     18 C         143.0489  139.7170  160.0657 C.ar    1  UNL1        0.1401
     19 F         143.2384  139.6472  158.5794 F       1  UNL1       -0.2042
     20 C         141.6960  140.0249  160.6357 C.ar    1  UNL1        0.0297
     21 C         141.5066  140.0946  162.1221 C.ar    1  UNL1        0.0039
     22 C         141.9504  141.7172  167.9273 C.3     1  UNL1        0.0870
     23 C         140.6462  142.4400  168.0906 C.3     1  UNL1        0.0226
     24 C         140.4468  143.3756  169.2460 C.3     1  UNL1        0.0019
     25 C         141.5516  143.5885  170.2381 C.3     1  UNL1        0.0001
     26 C         142.8557  142.8657  170.0747 C.3     1  UNL1        0.0019
     27 C         143.0551  141.9301  168.9194 C.3     1  UNL1        0.0226
@<TRIPOS>BOND
     1     6     7    1
     2     7     8   ar
     3     8     9   ar
     4     9    10   ar
     5    10    11   ar
     6    11     1    1
     7     1     2   ar
     8     2    15    1
     9    15    16   ar
    10    16    17   ar
    11    17    18   ar
    12    18    19    1
    13    18    20   ar
    14    20    21   ar
    15     2     3   ar
    16     3     4   ar
    17     4     5   ar
    18     5    22    1
    19    22    23    1
    20    23    24    1
    21    24    25    1
    22    25    26    1
    23    26    27    1
    24    11    12   ar
    25    12     7   ar
    26     5     1   ar
    27    27    22    1
    28    21    15   ar
    29     6    13    1
    30     6    14    1
@<TRIPOS>MOLECULE
*****
 27 30 0 0 0
SMALL
GASTEIGER

@<TRIPOS>ATOM
      1 C         141.8938  140.4883  165.9306 C.ar    1  UNL1        0.0968
      2 C         142.7628  139.4409  165.2999 C.ar    1  UNL1        0.1002
      3 N         143.3713  138.6205  166.3983 N.ar    1  UNL1       -0.2239
      4 C         142.8785  139.1609  167.7079 C.ar    1  UNL1        0.1785
      5 N         141.9653  140.3153  167.4188 N.ar    1  UNL1       -0.3097
      6 N         141.4598  145.2846  163.9794 N.pl3   1  UNL1       -0.3274
      7 C         140.8768  143.9246  164.2255 C.ar    1  UNL1        0.2137
      8 N         139.4938  143.6028  163.7421 N.ar    1  UNL1       -0.2125
      9 C         138.9108  142.2429  163.9881 C.ar    1  UNL1        0.1034
     10 C         139.7108  141.2047  164.7176 C.ar    1  UNL1        0.0414
     11 C         141.0937  141.5265  165.2010 C.ar    1  UNL1        0.1030
     12 N         141.6768  142.8865  164.9550 N.ar    1  UNL1       -0.2125
     13 H         140.9348  145.9660  163.5006 H       1  UNL1        0.1452
     14 H         142.3675  145.4958  164.2967 H       1  UNL1        0.1452
     15 C         142.9843  139.2477  163.8289 C.ar    1  UNL1        0.0193
     16 C         142.2219  138.1894  163.0882 C.ar    1  UNL1        0.0039
     17 C         142.4434  137.9963  161.6173 C.ar    1  UNL1        0.0297
     18 C         143.4274  138.8615  160.8870 C.ar    1  UNL1        0.1401
     19 F         143.6489  138.6683  159.4161 F       1  UNL1       -0.2042
     20 C         144.1899  139.9199  161.6278 C.ar    1  UNL1        0.0297
     21 C         143.9682  140.1129  163.0987 C.ar    1  UNL1        0.0039
     22 C         141.2494  141.1500  168.4389 C.3     1  UNL1        0.0870
     23 C         140.0252  140.6145  169.1207 C.3     1  UNL1        0.0226
     24 C         139.3092  141.4492  170.1408 C.3     1  UNL1        0.0019
     25 C         139.8174  142.8194  170.4792 C.3     1  UNL1        0.0001
     26 C         141.0415  143.3548  169.7974 C.3     1  UNL1        0.0019
     27 C         141.7574  142.5201  168.7773 C.3     1  UNL1        0.0226
@<TRIPOS>BOND
     1     6     7    1
     2     7     8   ar
     3     8     9   ar
     4     9    10   ar
     5    10    11   ar
     6    11     1    1
     7     1     2   ar
     8     2    15    1
     9    15    16   ar
    10    16    17   ar
    11    17    18   ar
    12    18    19    1
    13    18    20   ar
    14    20    21   ar
    15     2     3   ar
    16     3     4   ar
    17     4     5   ar
    18     5    22    1
    19    22    23    1
    20    23    24    1
    21    24    25    1
    22    25    26    1
    23    26    27    1
    24    11    12   ar
    25    12     7   ar
    26     5     1   ar
    27    27    22    1
    28    21    15   ar
    29     6    13    1
    30     6    14    1
