@<TRIPOS>MOLECULE
*****
 31 34 0 0 0
SMALL
GASTEIGER

@<TRIPOS>ATOM
      1 C         142.5892  142.2196  164.3345 C.ar    1  UNL1        0.0858
      2 C         143.2818  141.4536  163.2466 C.ar    1  UNL1        0.0399
      3 C         143.3336  142.0093  161.8542 C.ar    1  UNL1        0.1032
      4 N         144.0262  141.2433  160.7663 N.ar    1  UNL1       -0.2405
      5 C         144.0780  141.7990  159.3740 C.ar    1  UNL1        0.1195
      6 C         143.4372  143.1206  159.0697 C.ar    1  UNL1        0.1196
      7 N         142.7446  143.8866  160.1575 N.ar    1  UNL1       -0.2379
      8 C         142.6928  143.3309  161.5498 C.ar    1  UNL1        0.1302
      9 C         142.0002  144.0969  162.6378 C.ar    1  UNL1        0.1477
     10 N         141.9484  143.5412  164.0301 N.ar    1  UNL1       -0.2292
     11 C         142.4337  140.5525  168.5114 C.ar    1  UNL1        0.1318
     12 C         143.0772  141.8837  168.2586 C.ar    1  UNL1        0.0344
     13 C         143.1290  142.4394  166.8664 C.ar    1  UNL1        0.0059
     14 C         142.5374  141.6639  165.7269 C.ar    1  UNL1        0.0370
     15 C         141.8939  140.3327  165.9796 C.ar    1  UNL1        0.1018
     16 N         141.8421  139.7770  167.3719 N.ar    1  UNL1       -0.2291
     17 C         141.9808  140.8789  171.0488 C.3     1  UNL1        0.1136
     18 N         142.3819  139.9969  169.9038 N.pl3   1  UNL1       -0.2897
     19 C         142.7311  138.5592  170.1510 C.3     1  UNL1        0.1136
     20 N         141.3594  145.4185  162.3334 N.pl3   1  UNL1       -0.3167
     21 H         141.9194  146.1990  162.1177 H       1  UNL1        0.1482
     22 C         139.8655  145.5510  162.3577 C.3     1  UNL1        0.0950
     23 C         139.0099  144.3468  162.6182 C.3     1  UNL1        0.0965
     24 C         138.7210  143.3782  161.5099 C.3     1  UNL1        0.0757
     25 N         137.8654  142.1740  161.7703 N.3     1  UNL1       -0.2971
     26 C         137.2986  141.9385  163.1390 C.3     1  UNL1        0.0742
     27 C         137.5875  142.9071  164.2473 C.3     1  UNL1        0.0837
     28 C         138.4431  144.1113  163.9869 C.3     1  UNL1        0.2680
     29 F         139.1923  145.3876  164.2313 F       1  UNL1       -0.2042
     30 F         138.1365  144.3190  165.4405 F       1  UNL1       -0.2042
     31 H         138.4302  141.3563  161.5408 H       1  UNL1        0.1233
@<TRIPOS>BOND
     1    17    18    1
     2    18    19    1
     3    18    11    1
     4    11    12   ar
     5    12    13   ar
     6    13    14   ar
     7    14     1    1
     8     1     2   ar
     9     2     3   ar
    10     3     4   ar
    11     4     5   ar
    12     5     6   ar
    13     6     7   ar
    14     7     8   ar
    15     8     9   ar
    16     9    20    1
    17    20    22    1
    18    23    22    1
    19    23    24    1
    20    24    25    1
    21    25    26    1
    22    26    27    1
    23    27    28    1
    24    28    29    1
    25    28    30    1
    26     9    10   ar
    27    14    15   ar
    28    15    16   ar
    29    16    11   ar
    30    10     1   ar
    31     8     3   ar
    32    28    23    1
    33    20    21    1
    34    25    31    1
@<TRIPOS>MOLECULE
*****
 31 34 0 0 0
SMALL
GASTEIGER

@<TRIPOS>ATOM
      1 C         139.4274  141.8134  164.4089 C.ar    1  UNL1        0.0858
      2 C         139.0976  140.6239  163.5569 C.ar    1  UNL1        0.0399
      3 C         138.7913  140.8067  162.0998 C.ar    1  UNL1        0.1032
      4 N         138.4615  139.6171  161.2478 N.ar    1  UNL1       -0.2405
      5 C         138.1553  139.8000  159.7908 C.ar    1  UNL1        0.1195
      6 C         138.1789  141.1724  159.1859 C.ar    1  UNL1        0.1196
      7 N         138.5088  142.3620  160.0380 N.ar    1  UNL1       -0.2379
      8 C         138.8150  142.1791  161.4949 C.ar    1  UNL1        0.1302
      9 C         139.1449  143.3687  162.3471 C.ar    1  UNL1        0.1477
     10 N         139.4511  143.1859  163.8041 N.ar    1  UNL1       -0.2292
     11 C         140.3460  141.2649  168.7799 C.ar    1  UNL1        0.1318
     12 C         140.6332  142.5769  168.1120 C.ar    1  UNL1        0.0344
     13 C         140.3271  142.7598  166.6551 C.ar    1  UNL1        0.0059
     14 C         139.7336  141.6306  165.8660 C.ar    1  UNL1        0.0370
     15 C         139.4464  140.3186  166.5338 C.ar    1  UNL1        0.1018
     16 N         139.7526  140.1357  167.9908 N.ar    1  UNL1       -0.2291
     17 C         141.5286  142.0696  170.9488 C.3     1  UNL1        0.1136
     18 N         140.6522  141.0821  170.2369 N.pl3   1  UNL1       -0.2897
     19 C         140.0820  139.9118  170.9820 C.3     1  UNL1        0.1136
     20 N         139.1685  144.7412  161.7422 N.pl3   1  UNL1       -0.3167
     21 H         138.3486  145.1211  161.3515 H       1  UNL1        0.1482
     22 C         140.4414  145.5347  161.7326 C.3     1  UNL1        0.0950
     23 C         141.7650  144.8295  161.7578 C.3     1  UNL1        0.0965
     24 C         142.1841  143.9793  160.5953 C.3     1  UNL1        0.0757
     25 N         143.5078  143.2741  160.6205 N.3     1  UNL1       -0.2971
     26 C         144.4124  143.4192  161.8082 C.3     1  UNL1        0.0742
     27 C         143.9933  144.2694  162.9708 C.3     1  UNL1        0.0837
     28 C         142.6696  144.9746  162.9456 C.3     1  UNL1        0.2680
     29 F         141.5217  145.8337  163.3860 F       1  UNL1       -0.2042
     30 F         143.1755  145.4180  164.2863 F       1  UNL1       -0.2042
     31 H         144.0319  143.6026  159.8094 H       1  UNL1        0.1233
@<TRIPOS>BOND
     1    17    18    1
     2    18    19    1
     3    18    11    1
     4    11    12   ar
     5    12    13   ar
     6    13    14   ar
     7    14     1    1
     8     1     2   ar
     9     2     3   ar
    10     3     4   ar
    11     4     5   ar
    12     5     6   ar
    13     6     7   ar
    14     7     8   ar
    15     8     9   ar
    16     9    20    1
    17    20    22    1
    18    23    22    1
    19    23    24    1
    20    24    25    1
    21    25    26    1
    22    26    27    1
    23    27    28    1
    24    28    29    1
    25    28    30    1
    26     9    10   ar
    27    14    15   ar
    28    15    16   ar
    29    16    11   ar
    30    10     1   ar
    31     8     3   ar
    32    28    23    1
    33    20    21    1
    34    25    31    1
@<TRIPOS>MOLECULE
*****
 31 34 0 0 0
SMALL
GASTEIGER

@<TRIPOS>ATOM
      1 C         140.8059  142.9183  164.0605 C.ar    1  UNL1        0.0858
      2 C         141.4511  143.9251  163.1550 C.ar    1  UNL1        0.0399
      3 C         140.9692  144.0815  161.7431 C.ar    1  UNL1        0.1032
      4 N         141.6144  145.0883  160.8376 N.ar    1  UNL1       -0.2405
      5 C         141.1324  145.2447  159.4258 C.ar    1  UNL1        0.1195
      6 C         140.0053  144.3942  158.9195 C.ar    1  UNL1        0.1196
      7 N         139.3601  143.3874  159.8250 N.ar    1  UNL1       -0.2379
      8 C         139.8421  143.2311  161.2368 C.ar    1  UNL1        0.1302
      9 C         139.1969  142.2242  162.1424 C.ar    1  UNL1        0.1477
     10 N         139.6788  142.0678  163.5542 N.ar    1  UNL1       -0.2292
     11 C         142.2516  142.4491  168.2960 C.ar    1  UNL1        0.1318
     12 C         143.2212  142.3427  167.1565 C.ar    1  UNL1        0.0344
     13 C         142.7393  142.4991  165.7447 C.ar    1  UNL1        0.0059
     14 C         141.2879  142.7619  165.4724 C.ar    1  UNL1        0.0370
     15 C         140.3183  142.8682  166.6119 C.ar    1  UNL1        0.1018
     16 N         140.8002  142.7118  168.0238 N.ar    1  UNL1       -0.2291
     17 C         144.1870  142.4774  170.0291 C.3     1  UNL1        0.1136
     18 N         142.7335  142.2926  169.7079 N.pl3   1  UNL1       -0.2897
     19 C         141.7619  141.9515  170.7986 C.3     1  UNL1        0.1136
     20 N         138.0697  141.3738  161.6361 N.pl3   1  UNL1       -0.3167
     21 H         137.5737  141.6432  160.8296 H       1  UNL1        0.1482
     22 C         137.6984  140.1129  162.3588 C.3     1  UNL1        0.0950
     23 C         138.7574  139.1108  162.7113 C.3     1  UNL1        0.0965
     24 C         139.6575  138.5637  161.6434 C.3     1  UNL1        0.0757
     25 N         140.7165  137.5616  161.9959 N.3     1  UNL1       -0.2971
     26 C         140.8755  137.1066  163.4163 C.3     1  UNL1        0.0742
     27 C         139.9754  137.6537  164.4843 C.3     1  UNL1        0.0837
     28 C         138.9164  138.6558  164.1318 C.3     1  UNL1        0.2680
     29 F         137.7749  139.6157  164.2919 F       1  UNL1       -0.2042
     30 F         138.6789  138.5342  165.6079 F       1  UNL1       -0.2042
     31 H         141.6097  137.9658  161.7144 H       1  UNL1        0.1233
@<TRIPOS>BOND
     1    17    18    1
     2    18    19    1
     3    18    11    1
     4    11    12   ar
     5    12    13   ar
     6    13    14   ar
     7    14     1    1
     8     1     2   ar
     9     2     3   ar
    10     3     4   ar
    11     4     5   ar
    12     5     6   ar
    13     6     7   ar
    14     7     8   ar
    15     8     9   ar
    16     9    20    1
    17    20    22    1
    18    23    22    1
    19    23    24    1
    20    24    25    1
    21    25    26    1
    22    26    27    1
    23    27    28    1
    24    28    29    1
    25    28    30    1
    26     9    10   ar
    27    14    15   ar
    28    15    16   ar
    29    16    11   ar
    30    10     1   ar
    31     8     3   ar
    32    28    23    1
    33    20    21    1
    34    25    31    1
@<TRIPOS>MOLECULE
*****
 31 34 0 0 0
SMALL
GASTEIGER

@<TRIPOS>ATOM
      1 C         141.0583  139.2938  164.1531 C.ar    1  UNL1        0.0858
      2 C         142.1746  138.6696  163.3695 C.ar    1  UNL1        0.0399
      3 C         142.0383  138.4842  161.8872 C.ar    1  UNL1        0.1032
      4 N         143.1546  137.8601  161.1036 N.ar    1  UNL1       -0.2405
      5 C         143.0182  137.6747  159.6214 C.ar    1  UNL1        0.1195
      6 C         141.7654  138.1135  158.9228 C.ar    1  UNL1        0.1196
      7 N         140.6491  138.7376  159.7064 N.ar    1  UNL1       -0.2379
      8 C         140.7855  138.9230  161.1886 C.ar    1  UNL1        0.1302
      9 C         139.6691  139.5472  161.9723 C.ar    1  UNL1        0.1477
     10 N         139.8055  139.7325  163.4545 N.ar    1  UNL1       -0.2292
     11 C         141.4675  139.8499  168.5998 C.ar    1  UNL1        0.1318
     12 C         140.1389  140.0619  167.9366 C.ar    1  UNL1        0.0344
     13 C         140.0024  139.8765  166.4544 C.ar    1  UNL1        0.0059
     14 C         141.1946  139.4792  165.6354 C.ar    1  UNL1        0.0370
     15 C         142.5232  139.2671  166.2987 C.ar    1  UNL1        0.1018
     16 N         142.6596  139.4525  167.7809 N.ar    1  UNL1       -0.2291
     17 C         142.9583  139.9767  170.7238 C.3     1  UNL1        0.1136
     18 N         141.6038  140.0353  170.0821 N.pl3   1  UNL1       -0.2897
     19 C         140.3856  140.2793  170.9226 C.3     1  UNL1        0.1136
     20 N         138.4163  139.9860  161.2738 N.pl3   1  UNL1       -0.3167
     21 H         138.1585  139.5715  160.4187 H       1  UNL1        0.1482
     22 C         137.5562  141.0561  161.8779 C.3     1  UNL1        0.0950
     23 C         138.1020  142.4408  162.0642 C.3     1  UNL1        0.0965
     24 C         138.8801  143.0950  160.9612 C.3     1  UNL1        0.0757
     25 N         139.4259  144.4797  161.1475 N.3     1  UNL1       -0.2971
     26 C         139.1936  145.2102  162.4369 C.3     1  UNL1        0.0742
     27 C         138.4155  144.5560  163.5399 C.3     1  UNL1        0.0837
     28 C         137.8697  143.1713  163.3536 C.3     1  UNL1        0.2680
     29 F         137.1574  141.8852  163.6509 F       1  UNL1       -0.2042
     30 F         137.3901  143.4552  164.7462 F       1  UNL1       -0.2042
     31 H         139.0264  145.0558  160.4066 H       1  UNL1        0.1233
@<TRIPOS>BOND
     1    17    18    1
     2    18    19    1
     3    18    11    1
     4    11    12   ar
     5    12    13   ar
     6    13    14   ar
     7    14     1    1
     8     1     2   ar
     9     2     3   ar
    10     3     4   ar
    11     4     5   ar
    12     5     6   ar
    13     6     7   ar
    14     7     8   ar
    15     8     9   ar
    16     9    20    1
    17    20    22    1
    18    23    22    1
    19    23    24    1
    20    24    25    1
    21    25    26    1
    22    26    27    1
    23    27    28    1
    24    28    29    1
    25    28    30    1
    26     9    10   ar
    27    14    15   ar
    28    15    16   ar
    29    16    11   ar
    30    10     1   ar
    31     8     3   ar
    32    28    23    1
    33    20    21    1
    34    25    31    1
@<TRIPOS>MOLECULE
*****
 31 34 0 0 0
SMALL
GASTEIGER

@<TRIPOS>ATOM
      1 C         140.3226  140.0565  164.5244 C.ar    1  UNL1        0.0858
      2 C         139.2439  140.5813  163.6238 C.ar    1  UNL1        0.0399
      3 C         139.1818  140.1397  162.1916 C.ar    1  UNL1        0.1032
      4 N         138.1031  140.6645  161.2911 N.ar    1  UNL1       -0.2405
      5 C         138.0410  140.2228  159.8590 C.ar    1  UNL1        0.1195
      6 C         139.0575  139.2564  159.3274 C.ar    1  UNL1        0.1196
      7 N         140.1362  138.7316  160.2279 N.ar    1  UNL1       -0.2379
      8 C         140.1983  139.1732  161.6600 C.ar    1  UNL1        0.1302
      9 C         141.2770  138.6484  162.5606 C.ar    1  UNL1        0.1477
     10 N         141.3391  139.0900  163.9928 N.ar    1  UNL1       -0.2292
     11 C         140.5092  141.3814  168.8208 C.ar    1  UNL1        0.1318
     12 C         139.6058  140.2521  168.4228 C.ar    1  UNL1        0.0344
     13 C         139.5436  139.8105  166.9907 C.ar    1  UNL1        0.0059
     14 C         140.3848  140.4981  165.9566 C.ar    1  UNL1        0.0370
     15 C         141.2882  141.6275  166.3546 C.ar    1  UNL1        0.1018
     16 N         141.3504  142.0691  167.7867 N.ar    1  UNL1       -0.2291
     17 C         139.7137  142.9594  170.7254 C.3     1  UNL1        0.1136
     18 N         140.5714  141.8231  170.2530 N.pl3   1  UNL1       -0.2897
     19 C         141.4912  141.1283  171.2128 C.3     1  UNL1        0.1136
     20 N         142.2936  137.6819  162.0290 N.pl3   1  UNL1       -0.3167
     21 H         142.0174  136.7767  161.7578 H       1  UNL1        0.1482
     22 C         143.7308  138.0946  161.9107 C.3     1  UNL1        0.0950
     23 C         144.0816  139.5370  161.6952 C.3     1  UNL1        0.0965
     24 C         143.7425  140.2053  160.3958 C.3     1  UNL1        0.0757
     25 N         144.0933  141.6477  160.1803 N.3     1  UNL1       -0.2971
     26 C         144.7831  142.4218  161.2642 C.3     1  UNL1        0.0742
     27 C         145.1222  141.7535  162.5636 C.3     1  UNL1        0.0837
     28 C         144.7714  140.3112  162.7791 C.3     1  UNL1        0.2680
     29 F         144.6450  138.9767  163.4522 F       1  UNL1       -0.2042
     30 F         145.4174  140.6218  164.0968 F       1  UNL1       -0.2042
     31 H         143.2207  142.1361  159.9794 H       1  UNL1        0.1233
@<TRIPOS>BOND
     1    17    18    1
     2    18    19    1
     3    18    11    1
     4    11    12   ar
     5    12    13   ar
     6    13    14   ar
     7    14     1    1
     8     1     2   ar
     9     2     3   ar
    10     3     4   ar
    11     4     5   ar
    12     5     6   ar
    13     6     7   ar
    14     7     8   ar
    15     8     9   ar
    16     9    20    1
    17    20    22    1
    18    23    22    1
    19    23    24    1
    20    24    25    1
    21    25    26    1
    22    26    27    1
    23    27    28    1
    24    28    29    1
    25    28    30    1
    26     9    10   ar
    27    14    15   ar
    28    15    16   ar
    29    16    11   ar
    30    10     1   ar
    31     8     3   ar
    32    28    23    1
    33    20    21    1
    34    25    31    1
@<TRIPOS>MOLECULE
*****
 31 34 0 0 0
SMALL
GASTEIGER

@<TRIPOS>ATOM
      1 C         142.4932  141.7256  164.5779 C.ar    1  UNL1        0.0858
      2 C         143.2616  142.3737  165.6912 C.ar    1  UNL1        0.0399
      3 C         142.9422  142.0377  167.1178 C.ar    1  UNL1        0.1032
      4 N         143.7106  142.6858  168.2311 N.ar    1  UNL1       -0.2405
      5 C         143.3912  142.3498  169.6576 C.ar    1  UNL1        0.1195
      6 C         142.3033  141.3656  169.9709 C.ar    1  UNL1        0.1196
      7 N         141.5349  140.7175  168.8576 N.ar    1  UNL1       -0.2379
      8 C         141.8543  141.0536  167.4311 C.ar    1  UNL1        0.1302
      9 C         141.0859  140.4055  166.3177 C.ar    1  UNL1        0.1477
     10 N         141.4053  140.7415  164.8912 N.ar    1  UNL1       -0.2292
     11 C         143.4515  142.7335  160.2983 C.ar    1  UNL1        0.1318
     12 C         142.0233  142.5866  160.7325 C.ar    1  UNL1        0.0344
     13 C         141.7038  142.2507  162.1590 C.ar    1  UNL1        0.0059
     14 C         142.8126  142.0616  163.1513 C.ar    1  UNL1        0.0370
     15 C         144.2409  142.2085  162.7171 C.ar    1  UNL1        0.1018
     16 N         144.5603  142.5445  161.2906 N.ar    1  UNL1       -0.2291
     17 C         142.8368  143.9335  158.0774 C.3     1  UNL1        0.1136
     18 N         143.7709  143.0695  158.8716 N.pl3   1  UNL1       -0.2897
     19 C         145.0245  142.5416  158.2394 C.3     1  UNL1        0.1136
     20 N         139.9981  139.4213  166.6309 N.pl3   1  UNL1       -0.3167
     21 H         140.1719  138.6760  167.2501 H       1  UNL1        0.1482
     22 C         138.6454  139.5729  166.0007 C.3     1  UNL1        0.0950
     23 C         138.4544  139.2513  164.5481 C.3     1  UNL1        0.0965
     24 C         138.8095  137.8898  164.0284 C.3     1  UNL1        0.0757
     25 N         138.6185  137.5682  162.5758 N.3     1  UNL1       -0.2971
     26 C         138.0725  138.6081  161.6428 C.3     1  UNL1        0.0742
     27 C         137.7174  139.9697  162.1625 C.3     1  UNL1        0.0837
     28 C         137.9083  140.2913  163.6152 C.3     1  UNL1        0.2680
     29 F         137.9098  141.0677  164.8986 F       1  UNL1       -0.2042
     30 F         137.3628  141.6009  163.1280 F       1  UNL1       -0.2042
     31 H         137.9840  136.7708  162.5317 H       1  UNL1        0.1233
@<TRIPOS>BOND
     1    17    18    1
     2    18    19    1
     3    18    11    1
     4    11    12   ar
     5    12    13   ar
     6    13    14   ar
     7    14     1    1
     8     1     2   ar
     9     2     3   ar
    10     3     4   ar
    11     4     5   ar
    12     5     6   ar
    13     6     7   ar
    14     7     8   ar
    15     8     9   ar
    16     9    20    1
    17    20    22    1
    18    23    22    1
    19    23    24    1
    20    24    25    1
    21    25    26    1
    22    26    27    1
    23    27    28    1
    24    28    29    1
    25    28    30    1
    26     9    10   ar
    27    14    15   ar
    28    15    16   ar
    29    16    11   ar
    30    10     1   ar
    31     8     3   ar
    32    28    23    1
    33    20    21    1
    34    25    31    1
@<TRIPOS>MOLECULE
*****
 31 34 0 0 0
SMALL
GASTEIGER

@<TRIPOS>ATOM
      1 C         142.4569  141.8711  163.8291 C.ar    1  UNL1        0.0858
      2 C         142.3642  142.9980  162.8435 C.ar    1  UNL1        0.0399
      3 C         142.6471  142.7496  161.3914 C.ar    1  UNL1        0.1032
      4 N         142.5544  143.8765  160.4058 N.ar    1  UNL1       -0.2405
      5 C         142.8372  143.6281  158.9539 C.ar    1  UNL1        0.1195
      6 C         143.2127  142.2528  158.4875 C.ar    1  UNL1        0.1196
      7 N         143.3054  141.1259  159.4731 N.ar    1  UNL1       -0.2379
      8 C         143.0226  141.3743  160.9251 C.ar    1  UNL1        0.1302
      9 C         143.1153  140.2474  161.9108 C.ar    1  UNL1        0.1477
     10 N         142.8324  140.4958  163.3627 N.ar    1  UNL1       -0.2292
     11 C         141.6083  142.6162  168.1851 C.ar    1  UNL1        0.1318
     12 C         142.9854  142.2135  167.7474 C.ar    1  UNL1        0.0344
     13 C         143.2683  141.9651  166.2955 C.ar    1  UNL1        0.0059
     14 C         142.1741  142.1195  165.2811 C.ar    1  UNL1        0.0370
     15 C         140.7970  142.5222  165.7188 C.ar    1  UNL1        0.1018
     16 N         140.5142  142.7706  167.1708 N.ar    1  UNL1       -0.2291
     17 C         141.9611  141.9984  170.6839 C.3     1  UNL1        0.1136
     18 N         141.3255  142.8646  169.6371 N.pl3   1  UNL1       -0.2897
     19 C         140.4071  143.9792  170.0424 C.3     1  UNL1        0.1136
     20 N         143.4908  138.8720  161.4444 N.pl3   1  UNL1       -0.3167
     21 H         144.3192  138.7357  160.9303 H       1  UNL1        0.1482
     22 C         142.6040  137.7045  161.7613 C.3     1  UNL1        0.0950
     23 C         141.1161  137.8860  161.8167 C.3     1  UNL1        0.0965
     24 C         140.3758  138.3837  160.6108 C.3     1  UNL1        0.0757
     25 N         138.8879  138.5652  160.6662 N.3     1  UNL1       -0.2971
     26 C         138.1402  138.2490  161.9275 C.3     1  UNL1        0.0742
     27 C         138.8805  137.7513  163.1335 C.3     1  UNL1        0.0837
     28 C         140.3684  137.5698  163.0781 C.3     1  UNL1        0.2680
     29 F         141.7651  137.2385  163.5132 F       1  UNL1       -0.2042
     30 F         140.1058  137.1385  164.4905 F       1  UNL1       -0.2042
     31 H         138.4919  137.9761  159.9336 H       1  UNL1        0.1233
@<TRIPOS>BOND
     1    17    18    1
     2    18    19    1
     3    18    11    1
     4    11    12   ar
     5    12    13   ar
     6    13    14   ar
     7    14     1    1
     8     1     2   ar
     9     2     3   ar
    10     3     4   ar
    11     4     5   ar
    12     5     6   ar
    13     6     7   ar
    14     7     8   ar
    15     8     9   ar
    16     9    20    1
    17    20    22    1
    18    23    22    1
    19    23    24    1
    20    24    25    1
    21    25    26    1
    22    26    27    1
    23    27    28    1
    24    28    29    1
    25    28    30    1
    26     9    10   ar
    27    14    15   ar
    28    15    16   ar
    29    16    11   ar
    30    10     1   ar
    31     8     3   ar
    32    28    23    1
    33    20    21    1
    34    25    31    1
@<TRIPOS>MOLECULE
*****
 31 34 0 0 0
SMALL
GASTEIGER

@<TRIPOS>ATOM
      1 C         138.1252  140.8740  161.0858 C.ar    1  UNL1        0.0858
      2 C         138.5213  139.4974  161.5307 C.ar    1  UNL1        0.0399
      3 C         138.5129  139.1493  162.9898 C.ar    1  UNL1        0.1032
      4 N         138.9090  137.7727  163.4347 N.ar    1  UNL1       -0.2405
      5 C         138.9005  137.4247  164.8937 C.ar    1  UNL1        0.1195
      6 C         138.4960  138.4533  165.9078 C.ar    1  UNL1        0.1196
      7 N         138.0999  139.8299  165.4629 N.ar    1  UNL1       -0.2379
      8 C         138.1083  140.1779  164.0039 C.ar    1  UNL1        0.1302
      9 C         137.7122  141.5546  163.5589 C.ar    1  UNL1        0.1477
     10 N         137.7206  141.9026  162.0998 N.ar    1  UNL1       -0.2292
     11 C         138.1504  141.9181  156.7087 C.ar    1  UNL1        0.1318
     12 C         138.7084  142.8825  157.7130 C.ar    1  UNL1        0.0344
     13 C         138.7000  142.5345  159.1720 C.ar    1  UNL1        0.0059
     14 C         138.1336  141.2221  159.6267 C.ar    1  UNL1        0.0370
     15 C         137.5756  140.2577  158.6224 C.ar    1  UNL1        0.1018
     16 N         137.5840  140.6057  157.1634 N.ar    1  UNL1       -0.2291
     17 C         138.9486  143.4455  154.7644 C.3     1  UNL1        0.1136
     18 N         138.1588  142.2662  155.2496 N.pl3   1  UNL1       -0.2897
     19 C         137.3774  141.4349  154.2757 C.3     1  UNL1        0.1136
     20 N         137.3077  142.5832  164.5729 N.pl3   1  UNL1       -0.3167
     21 H         136.7267  142.3298  165.3262 H       1  UNL1        0.1482
     22 C         137.7884  143.9977  164.4393 C.3     1  UNL1        0.0950
     23 C         139.2320  144.2741  164.1398 C.3     1  UNL1        0.0965
     24 C         140.3037  143.6958  165.0154 C.3     1  UNL1        0.0757
     25 N         141.7473  143.9722  164.7160 N.3     1  UNL1       -0.2971
     26 C         142.1191  144.8270  163.5408 C.3     1  UNL1        0.0742
     27 C         141.0473  145.4055  162.6651 C.3     1  UNL1        0.0837
     28 C         139.6038  145.1290  162.9646 C.3     1  UNL1        0.2680
     29 F         138.1091  145.1523  162.8411 F       1  UNL1       -0.2042
     30 F         139.4565  145.9919  161.7465 F       1  UNL1       -0.2042
     31 H         142.1975  143.0677  164.5763 H       1  UNL1        0.1233
@<TRIPOS>BOND
     1    17    18    1
     2    18    19    1
     3    18    11    1
     4    11    12   ar
     5    12    13   ar
     6    13    14   ar
     7    14     1    1
     8     1     2   ar
     9     2     3   ar
    10     3     4   ar
    11     4     5   ar
    12     5     6   ar
    13     6     7   ar
    14     7     8   ar
    15     8     9   ar
    16     9    20    1
    17    20    22    1
    18    23    22    1
    19    23    24    1
    20    24    25    1
    21    25    26    1
    22    26    27    1
    23    27    28    1
    24    28    29    1
    25    28    30    1
    26     9    10   ar
    27    14    15   ar
    28    15    16   ar
    29    16    11   ar
    30    10     1   ar
    31     8     3   ar
    32    28    23    1
    33    20    21    1
    34    25    31    1
@<TRIPOS>MOLECULE
*****
 31 34 0 0 0
SMALL
GASTEIGER

@<TRIPOS>ATOM
      1 C         140.0162  143.5851  159.9349 C.ar    1  UNL1        0.0858
      2 C         141.4964  143.3587  160.0229 C.ar    1  UNL1        0.0399
      3 C         142.2532  143.8100  161.2369 C.ar    1  UNL1        0.1032
      4 N         143.7334  143.5836  161.3250 N.ar    1  UNL1       -0.2405
      5 C         144.4901  144.0349  162.5389 C.ar    1  UNL1        0.1195
      6 C         143.7667  144.7125  163.6647 C.ar    1  UNL1        0.1196
      7 N         142.2866  144.9389  163.5767 N.ar    1  UNL1       -0.2379
      8 C         141.5298  144.4876  162.3627 C.ar    1  UNL1        0.1302
      9 C         140.0496  144.7140  162.2746 C.ar    1  UNL1        0.1477
     10 N         139.2928  144.2627  161.0607 N.ar    1  UNL1       -0.2292
     11 C         137.7457  142.2313  156.2932 C.ar    1  UNL1        0.1318
     12 C         138.6369  143.4354  156.2167 C.ar    1  UNL1        0.0344
     13 C         139.3937  143.8867  157.4305 C.ar    1  UNL1        0.0059
     14 C         139.2594  143.1338  158.7209 C.ar    1  UNL1        0.0370
     15 C         138.3682  141.9297  158.7974 C.ar    1  UNL1        0.1018
     16 N         137.6113  141.4784  157.5835 N.ar    1  UNL1       -0.2291
     17 C         136.5272  140.3571  154.9692 C.3     1  UNL1        0.1136
     18 N         136.9889  141.7800  155.0792 N.pl3   1  UNL1       -0.2897
     19 C         136.6938  142.7517  153.9753 C.3     1  UNL1        0.1136
     20 N         139.3261  145.3916  163.4004 N.pl3   1  UNL1       -0.3167
     21 H         139.4998  146.3406  163.5966 H       1  UNL1        0.1482
     22 C         138.3382  144.6234  164.2273 C.3     1  UNL1        0.0950
     23 C         138.6410  143.2132  164.6393 C.3     1  UNL1        0.0965
     24 C         139.7256  142.9403  165.6388 C.3     1  UNL1        0.0757
     25 N         140.0284  141.5301  166.0508 N.3     1  UNL1       -0.2971
     26 C         139.2464  140.3928  165.4633 C.3     1  UNL1        0.0742
     27 C         138.1616  140.6657  164.4638 C.3     1  UNL1        0.0837
     28 C         137.8589  142.0759  164.0518 C.3     1  UNL1        0.2680
     29 F         137.2059  143.2304  163.3513 F       1  UNL1       -0.2042
     30 F         136.8502  141.3396  163.2211 F       1  UNL1       -0.2042
     31 H         139.8999  141.4846  167.0616 H       1  UNL1        0.1233
@<TRIPOS>BOND
     1    17    18    1
     2    18    19    1
     3    18    11    1
     4    11    12   ar
     5    12    13   ar
     6    13    14   ar
     7    14     1    1
     8     1     2   ar
     9     2     3   ar
    10     3     4   ar
    11     4     5   ar
    12     5     6   ar
    13     6     7   ar
    14     7     8   ar
    15     8     9   ar
    16     9    20    1
    17    20    22    1
    18    23    22    1
    19    23    24    1
    20    24    25    1
    21    25    26    1
    22    26    27    1
    23    27    28    1
    24    28    29    1
    25    28    30    1
    26     9    10   ar
    27    14    15   ar
    28    15    16   ar
    29    16    11   ar
    30    10     1   ar
    31     8     3   ar
    32    28    23    1
    33    20    21    1
    34    25    31    1
