@<TRIPOS>MOLECULE
*****
 27 30 0 0 0
SMALL
GASTEIGER

@<TRIPOS>ATOM
      1 C         140.5703  140.8214  166.5084 C.3     1  UNL1        0.1806
      2 C         140.3090  141.0539  167.9670 C.3     1  UNL1        0.0488
      3 C         140.7157  141.8708  169.1575 C.3     1  UNL1        0.0118
      4 C         139.8863  141.4302  170.3271 C.3     1  UNL1        0.0646
      5 C         138.9671  140.3409  169.8595 C.2     1  UNL1        0.1504
      6 O         137.9630  139.6122  170.7025 O.2     1  UNL1       -0.2961
      7 C         139.2284  140.1084  168.4008 C.3     1  UNL1        0.0626
      8 C         138.8218  139.2915  167.2103 C.3     1  UNL1        0.0271
      9 C         139.6512  139.7322  166.0406 C.3     1  UNL1        0.0982
     10 N         139.5748  139.1805  164.6480 N.3     1  UNL1       -0.2697
     11 C         138.3461  139.4071  163.8178 C.3     1  UNL1        0.0722
     12 C         138.2697  138.8554  162.4251 C.3     1  UNL1        0.0187
     13 C         139.4220  138.0770  161.8624 C.3     1  UNL1        0.0183
     14 C         140.6506  137.8504  162.6925 C.3     1  UNL1        0.0670
     15 N         141.8028  137.0721  162.1298 N.3     1  UNL1       -0.3211
     16 C         140.7270  138.4021  164.0853 C.3     1  UNL1        0.0878
     17 H         141.5809  136.7753  161.1795 H       1  UNL1        0.1189
     18 H         141.9749  136.2515  162.7108 H       1  UNL1        0.1189
     19 O         141.5744  141.5502  165.6654 O.3     1  UNL1       -0.4778
     20 C         140.2173  144.7668  162.8260 C.ar    1  UNL1        0.0686
     21 C         139.6463  144.6996  164.2115 C.ar    1  UNL1        0.0134
     22 C         140.0987  143.6274  165.1580 C.ar    1  UNL1        0.0376
     23 C         141.1220  142.6224  164.7190 C.ar    1  UNL1        0.1385
     24 C         141.6930  142.6895  163.3334 C.ar    1  UNL1        0.0376
     25 C         141.2406  143.7617  162.3870 C.ar    1  UNL1        0.0134
     26 N         139.3125  146.9112  160.9332 N.1     1  UNL1       -0.1908
     27 C         139.7649  145.8390  161.8796 C.1     1  UNL1        0.1004
@<TRIPOS>BOND
     1    26    27    3
     2    27    20    1
     3    20    21   ar
     4    21    22   ar
     5    22    23   ar
     6    23    19    1
     7     1    19    1
     8     1     2    1
     9     2     3    1
    10     3     4    1
    11     4     5    1
    12     5     6    2
    13     5     7    1
    14     7     8    1
    15     8     9    1
    16     9    10    1
    17    10    11    1
    18    11    12    1
    19    12    13    1
    20    13    14    1
    21    14    15    1
    22    14    16    1
    23    23    24   ar
    24    24    25   ar
    25    25    20   ar
    26     9     1    1
    27    16    10    1
    28     7     2    1
    29    15    17    1
    30    15    18    1
@<TRIPOS>MOLECULE
*****
 27 30 0 0 0
SMALL
GASTEIGER

@<TRIPOS>ATOM
      1 C         140.4485  140.7222  166.5016 C.3     1  UNL1        0.1806
      2 C         140.2897  140.9173  167.9804 C.3     1  UNL1        0.0488
      3 C         140.8293  141.6506  169.1725 C.3     1  UNL1        0.0118
      4 C         140.0329  141.2330  170.3730 C.3     1  UNL1        0.0646
      5 C         139.0012  140.2415  169.9229 C.2     1  UNL1        0.1504
      6 O         137.9886  139.5640  170.7979 O.2     1  UNL1       -0.2961
      7 C         139.1599  140.0464  168.4441 C.3     1  UNL1        0.0626
      8 C         138.6204  139.3130  167.2520 C.3     1  UNL1        0.0271
      9 C         139.4168  139.7307  166.0514 C.3     1  UNL1        0.0982
     10 N         139.2167  139.2426  164.6473 N.3     1  UNL1       -0.2697
     11 C         139.9870  138.0559  164.1487 C.3     1  UNL1        0.0722
     12 C         139.7869  137.5678  162.7447 C.3     1  UNL1        0.0187
     13 C         138.8163  138.2664  161.8389 C.3     1  UNL1        0.0183
     14 C         138.0460  139.4530  162.3374 C.3     1  UNL1        0.0670
     15 N         137.0755  140.1515  161.4318 N.3     1  UNL1       -0.3211
     16 C         138.2462  139.9411  163.7416 C.3     1  UNL1        0.0878
     17 H         137.0666  139.6899  160.5222 H       1  UNL1        0.1189
     18 H         137.3581  141.1247  161.3164 H       1  UNL1        0.1189
     19 O         141.4611  141.3996  165.6266 O.3     1  UNL1       -0.4778
     20 C         140.1815  144.6903  162.8365 C.ar    1  UNL1        0.0686
     21 C         141.0910  143.6028  162.3464 C.ar    1  UNL1        0.0134
     22 C         141.5176  142.5058  163.2764 C.ar    1  UNL1        0.0376
     23 C         141.0346  142.4965  164.6966 C.ar    1  UNL1        0.1385
     24 C         140.1251  143.5840  165.1866 C.ar    1  UNL1        0.0376
     25 C         139.6986  144.6809  164.2566 C.ar    1  UNL1        0.0134
     26 N         139.3285  146.8840  160.9765 N.1     1  UNL1       -0.1908
     27 C         139.7550  145.7871  161.9065 C.1     1  UNL1        0.1004
@<TRIPOS>BOND
     1    26    27    3
     2    27    20    1
     3    20    21   ar
     4    21    22   ar
     5    22    23   ar
     6    23    19    1
     7     1    19    1
     8     1     2    1
     9     2     3    1
    10     3     4    1
    11     4     5    1
    12     5     6    2
    13     5     7    1
    14     7     8    1
    15     8     9    1
    16     9    10    1
    17    10    11    1
    18    11    12    1
    19    12    13    1
    20    13    14    1
    21    14    15    1
    22    14    16    1
    23    23    24   ar
    24    24    25   ar
    25    25    20   ar
    26     9     1    1
    27    16    10    1
    28     7     2    1
    29    15    17    1
    30    15    18    1
@<TRIPOS>MOLECULE
*****
 27 30 0 0 0
SMALL
GASTEIGER

@<TRIPOS>ATOM
      1 C         141.6856  141.7389  166.9750 C.3     1  UNL1        0.1806
      2 C         140.9163  141.9506  168.2452 C.3     1  UNL1        0.0488
      3 C         140.5462  142.9667  169.2848 C.3     1  UNL1        0.0118
      4 C         139.6715  142.2932  170.3003 C.3     1  UNL1        0.0646
      5 C         139.5011  140.8609  169.8884 C.2     1  UNL1        0.1504
      6 O         138.7016  139.8227  170.6185 O.2     1  UNL1       -0.2961
      7 C         140.2704  140.6492  168.6182 C.3     1  UNL1        0.0626
      8 C         140.6404  139.6332  167.5786 C.3     1  UNL1        0.0271
      9 C         141.5151  140.3067  166.5630 C.3     1  UNL1        0.0982
     10 N         142.1141  139.6613  165.3487 N.3     1  UNL1       -0.2697
     11 C         143.5003  140.0303  164.9099 C.3     1  UNL1        0.0722
     12 C         144.0993  139.3849  163.6956 C.3     1  UNL1        0.0187
     13 C         143.3121  138.3704  162.9200 C.3     1  UNL1        0.0183
     14 C         141.9260  138.0014  163.3588 C.3     1  UNL1        0.0670
     15 N         141.1390  136.9870  162.5833 N.3     1  UNL1       -0.3211
     16 C         141.3271  138.6469  164.5732 C.3     1  UNL1        0.0878
     17 H         141.6954  136.6547  161.7956 H       1  UNL1        0.1189
     18 H         140.2806  137.4153  162.2366 H       1  UNL1        0.1189
     19 O         142.4850  142.7771  166.2449 O.3     1  UNL1       -0.4778
     20 C         140.5744  145.1908  162.9625 C.ar    1  UNL1        0.0686
     21 C         139.7194  144.5334  164.0049 C.ar    1  UNL1        0.0134
     22 C         140.3562  143.7288  165.0991 C.ar    1  UNL1        0.0376
     23 C         141.8481  143.5817  165.1508 C.ar    1  UNL1        0.1385
     24 C         142.7031  144.2391  164.1083 C.ar    1  UNL1        0.0376
     25 C         142.0663  145.0437  163.0141 C.ar    1  UNL1        0.0134
     26 N         139.3006  146.7998  160.7743 N.1     1  UNL1       -0.1908
     27 C         139.9375  145.9953  161.8684 C.1     1  UNL1        0.1004
@<TRIPOS>BOND
     1    26    27    3
     2    27    20    1
     3    20    21   ar
     4    21    22   ar
     5    22    23   ar
     6    23    19    1
     7     1    19    1
     8     1     2    1
     9     2     3    1
    10     3     4    1
    11     4     5    1
    12     5     6    2
    13     5     7    1
    14     7     8    1
    15     8     9    1
    16     9    10    1
    17    10    11    1
    18    11    12    1
    19    12    13    1
    20    13    14    1
    21    14    15    1
    22    14    16    1
    23    23    24   ar
    24    24    25   ar
    25    25    20   ar
    26     9     1    1
    27    16    10    1
    28     7     2    1
    29    15    17    1
    30    15    18    1
@<TRIPOS>MOLECULE
*****
 27 30 0 0 0
SMALL
GASTEIGER

@<TRIPOS>ATOM
      1 C         140.5511  139.9739  167.0604 C.3     1  UNL1        0.1806
      2 C         140.8100  140.2586  168.5102 C.3     1  UNL1        0.0488
      3 C         140.2233  140.8614  169.7521 C.3     1  UNL1        0.0118
      4 C         141.2290  140.7192  170.8559 C.3     1  UNL1        0.0646
      5 C         142.4372  140.0286  170.2962 C.2     1  UNL1        0.1504
      6 O         143.6852  139.6833  171.0533 O.2     1  UNL1       -0.2961
      7 C         142.1783  139.7439  168.8464 C.3     1  UNL1        0.0626
      8 C         142.7649  139.1411  167.6045 C.3     1  UNL1        0.0271
      9 C         141.7593  139.2832  166.5006 C.3     1  UNL1        0.0982
     10 N         141.9315  138.8166  165.0855 N.3     1  UNL1       -0.2697
     11 C         140.9020  137.9230  164.4597 C.3     1  UNL1        0.0722
     12 C         141.0742  137.4565  163.0447 C.3     1  UNL1        0.0187
     13 C         142.2762  137.8835  162.2552 C.3     1  UNL1        0.0183
     14 C         143.3057  138.7770  162.8809 C.3     1  UNL1        0.0670
     15 N         144.5076  139.2040  162.0914 N.3     1  UNL1       -0.3211
     16 C         143.1334  139.2436  164.2960 C.3     1  UNL1        0.0878
     17 H         144.4627  138.7973  161.1571 H       1  UNL1        0.1189
     18 H         145.3544  138.8837  162.5613 H       1  UNL1        0.1189
     19 O         139.3031  140.3191  166.3032 O.3     1  UNL1       -0.4778
     20 C         139.2569  143.8724  163.5424 C.ar    1  UNL1        0.0686
     21 C         138.2146  142.8025  163.4052 C.ar    1  UNL1        0.0134
     22 C         138.2300  141.6180  164.3255 C.ar    1  UNL1        0.0376
     23 C         139.2877  141.5035  165.3830 C.ar    1  UNL1        0.1385
     24 C         140.3300  142.5736  165.5201 C.ar    1  UNL1        0.0376
     25 C         140.3146  143.7580  164.5999 C.ar    1  UNL1        0.0134
     26 N         139.2262  146.2412  161.7019 N.1     1  UNL1       -0.1908
     27 C         139.2416  145.0568  162.6221 C.1     1  UNL1        0.1004
@<TRIPOS>BOND
     1    26    27    3
     2    27    20    1
     3    20    21   ar
     4    21    22   ar
     5    22    23   ar
     6    23    19    1
     7     1    19    1
     8     1     2    1
     9     2     3    1
    10     3     4    1
    11     4     5    1
    12     5     6    2
    13     5     7    1
    14     7     8    1
    15     8     9    1
    16     9    10    1
    17    10    11    1
    18    11    12    1
    19    12    13    1
    20    13    14    1
    21    14    15    1
    22    14    16    1
    23    23    24   ar
    24    24    25   ar
    25    25    20   ar
    26     9     1    1
    27    16    10    1
    28     7     2    1
    29    15    17    1
    30    15    18    1
@<TRIPOS>MOLECULE
*****
 27 30 0 0 0
SMALL
GASTEIGER

@<TRIPOS>ATOM
      1 C         141.9876  141.2987  166.9816 C.3     1  UNL1        0.1806
      2 C         142.3080  141.8123  168.3541 C.3     1  UNL1        0.0488
      3 C         143.3907  142.4067  169.2052 C.3     1  UNL1        0.0118
      4 C         142.8263  142.6433  170.5747 C.3     1  UNL1        0.0646
      5 C         141.3948  142.1952  170.5699 C.2     1  UNL1        0.1504
      6 O         140.4497  142.2509  171.7333 O.2     1  UNL1       -0.2961
      7 C         141.0745  141.6816  169.1975 C.3     1  UNL1        0.0626
      8 C         139.9917  141.0872  168.3463 C.3     1  UNL1        0.0271
      9 C         140.5561  140.8506  166.9768 C.3     1  UNL1        0.0982
     10 N         139.8185  140.2681  165.8078 N.3     1  UNL1       -0.2697
     11 C         140.1524  138.8887  165.3220 C.3     1  UNL1        0.0722
     12 C         139.4148  138.3063  164.1531 C.3     1  UNL1        0.0187
     13 C         138.3432  139.1031  163.4698 C.3     1  UNL1        0.0183
     14 C         138.0093  140.4824  163.9555 C.3     1  UNL1        0.0670
     15 N         136.9377  141.2792  163.2722 N.3     1  UNL1       -0.3211
     16 C         138.7470  141.0649  165.1246 C.3     1  UNL1        0.0878
     17 H         136.5454  140.7337  162.5049 H       1  UNL1        0.1189
     18 H         137.3378  142.1429  162.9056 H       1  UNL1        0.1189
     19 O         142.9328  141.2430  165.8182 O.3     1  UNL1       -0.4778
     20 C         142.1036  143.6797  162.1270 C.ar    1  UNL1        0.0686
     21 C         142.5703  144.3552  163.3824 C.ar    1  UNL1        0.0134
     22 C         142.8467  143.5429  164.6128 C.ar    1  UNL1        0.0376
     23 C         142.6564  142.0552  164.5878 C.ar    1  UNL1        0.1385
     24 C         142.1896  141.3798  163.3324 C.ar    1  UNL1        0.0376
     25 C         141.9133  142.1921  162.1020 C.ar    1  UNL1        0.0134
     26 N         141.5508  145.3043  159.6663 N.1     1  UNL1       -0.1908
     27 C         141.8272  144.4920  160.8966 C.1     1  UNL1        0.1004
@<TRIPOS>BOND
     1    26    27    3
     2    27    20    1
     3    20    21   ar
     4    21    22   ar
     5    22    23   ar
     6    23    19    1
     7     1    19    1
     8     1     2    1
     9     2     3    1
    10     3     4    1
    11     4     5    1
    12     5     6    2
    13     5     7    1
    14     7     8    1
    15     8     9    1
    16     9    10    1
    17    10    11    1
    18    11    12    1
    19    12    13    1
    20    13    14    1
    21    14    15    1
    22    14    16    1
    23    23    24   ar
    24    24    25   ar
    25    25    20   ar
    26     9     1    1
    27    16    10    1
    28     7     2    1
    29    15    17    1
    30    15    18    1
@<TRIPOS>MOLECULE
*****
 27 30 0 0 0
SMALL
GASTEIGER

@<TRIPOS>ATOM
      1 C         142.0353  141.1679  167.0403 C.3     1  UNL1        0.1806
      2 C         142.1669  141.7010  168.4361 C.3     1  UNL1        0.0488
      3 C         142.8559  142.7304  169.2821 C.3     1  UNL1        0.0118
      4 C         142.3797  142.5636  170.6947 C.3     1  UNL1        0.0646
      5 C         141.3965  141.4311  170.7218 C.2     1  UNL1        0.1504
      6 O         140.6720  140.9213  171.9323 O.2     1  UNL1       -0.2961
      7 C         141.2649  140.8980  169.3259 C.3     1  UNL1        0.0626
      8 C         140.5759  139.8686  168.4800 C.3     1  UNL1        0.0271
      9 C         141.0520  140.0354  167.0673 C.3     1  UNL1        0.0982
     10 N         140.6207  139.2139  165.8888 N.3     1  UNL1       -0.2697
     11 C         139.1794  138.8301  165.7292 C.3     1  UNL1        0.0722
     12 C         138.7480  138.0087  164.5507 C.3     1  UNL1        0.0187
     13 C         139.7579  137.5710  163.5315 C.3     1  UNL1        0.0183
     14 C         141.1992  137.9548  163.6910 C.3     1  UNL1        0.0670
     15 N         142.2090  137.5171  162.6719 N.3     1  UNL1       -0.3211
     16 C         141.6305  138.7763  164.8697 C.3     1  UNL1        0.0878
     17 H         141.7448  136.9718  161.9456 H       1  UNL1        0.1189
     18 H         142.9219  136.9443  163.1238 H       1  UNL1        0.1189
     19 O         142.7598  141.6777  165.8298 O.3     1  UNL1       -0.4778
     20 C         140.7921  144.6982  163.1363 C.ar    1  UNL1        0.0686
     21 C         142.2152  144.8931  163.5682 C.ar    1  UNL1        0.0134
     22 C         142.8712  143.8863  164.4661 C.ar    1  UNL1        0.0376
     23 C         142.1039  142.6845  164.9320 C.ar    1  UNL1        0.1385
     24 C         140.6806  142.4896  164.5000 C.ar    1  UNL1        0.0376
     25 C         140.0248  143.4964  163.6022 C.ar    1  UNL1        0.0134
     26 N         139.4803  146.7118  161.3406 N.1     1  UNL1       -0.1908
     27 C         140.1362  145.7050  162.2384 C.1     1  UNL1        0.1004
@<TRIPOS>BOND
     1    26    27    3
     2    27    20    1
     3    20    21   ar
     4    21    22   ar
     5    22    23   ar
     6    23    19    1
     7     1    19    1
     8     1     2    1
     9     2     3    1
    10     3     4    1
    11     4     5    1
    12     5     6    2
    13     5     7    1
    14     7     8    1
    15     8     9    1
    16     9    10    1
    17    10    11    1
    18    11    12    1
    19    12    13    1
    20    13    14    1
    21    14    15    1
    22    14    16    1
    23    23    24   ar
    24    24    25   ar
    25    25    20   ar
    26     9     1    1
    27    16    10    1
    28     7     2    1
    29    15    17    1
    30    15    18    1
@<TRIPOS>MOLECULE
*****
 27 30 0 0 0
SMALL
GASTEIGER

@<TRIPOS>ATOM
      1 C         141.3124  140.0865  166.3544 C.3     1  UNL1        0.1806
      2 C         141.6038  140.0072  167.8237 C.3     1  UNL1        0.0488
      3 C         142.7037  139.9901  168.8435 C.3     1  UNL1        0.0118
      4 C         142.0754  139.8789  170.2010 C.3     1  UNL1        0.0646
      5 C         140.5872  139.8273  170.0202 C.2     1  UNL1        0.1504
      6 O         139.5692  139.7159  171.1162 O.2     1  UNL1       -0.2961
      7 C         140.2958  139.9066  168.5509 C.3     1  UNL1        0.0626
      8 C         139.1959  139.9236  167.5311 C.3     1  UNL1        0.0271
      9 C         139.8242  140.0349  166.1735 C.3     1  UNL1        0.0982
     10 N         139.0928  140.0855  164.8650 N.3     1  UNL1       -0.2697
     11 C         138.4384  141.3600  164.4203 C.3     1  UNL1        0.0722
     12 C         137.7070  141.4106  163.1118 C.3     1  UNL1        0.0187
     13 C         137.6299  140.1868  162.2478 C.3     1  UNL1        0.0183
     14 C         138.2842  138.9124  162.6924 C.3     1  UNL1        0.0670
     15 N         138.2071  137.6887  161.8284 N.3     1  UNL1       -0.3211
     16 C         139.0156  138.8618  164.0010 C.3     1  UNL1        0.0878
     17 H         137.6766  137.9018  160.9836 H       1  UNL1        0.1189
     18 H         137.7429  136.9391  162.3412 H       1  UNL1        0.1189
     19 O         142.3303  140.1979  165.2584 O.3     1  UNL1       -0.4778
     20 C         141.8280  143.2890  162.0268 C.ar    1  UNL1        0.0686
     21 C         141.8405  141.8310  161.6746 C.ar    1  UNL1        0.0134
     22 C         142.0079  140.8006  162.7518 C.ar    1  UNL1        0.0376
     23 C         142.1629  141.2282  164.1812 C.ar    1  UNL1        0.1385
     24 C         142.1504  142.6863  164.5334 C.ar    1  UNL1        0.0376
     25 C         141.9830  143.7167  163.4562 C.ar    1  UNL1        0.0134
     26 N         141.4931  145.3497  159.8725 N.1     1  UNL1       -0.1908
     27 C         141.6606  144.3194  160.9497 C.1     1  UNL1        0.1004
@<TRIPOS>BOND
     1    26    27    3
     2    27    20    1
     3    20    21   ar
     4    21    22   ar
     5    22    23   ar
     6    23    19    1
     7     1    19    1
     8     1     2    1
     9     2     3    1
    10     3     4    1
    11     4     5    1
    12     5     6    2
    13     5     7    1
    14     7     8    1
    15     8     9    1
    16     9    10    1
    17    10    11    1
    18    11    12    1
    19    12    13    1
    20    13    14    1
    21    14    15    1
    22    14    16    1
    23    23    24   ar
    24    24    25   ar
    25    25    20   ar
    26     9     1    1
    27    16    10    1
    28     7     2    1
    29    15    17    1
    30    15    18    1
@<TRIPOS>MOLECULE
*****
 27 30 0 0 0
SMALL
GASTEIGER

@<TRIPOS>ATOM
      1 C         140.9355  140.8149  166.8964 C.3     1  UNL1        0.1806
      2 C         140.4220  140.6373  168.2946 C.3     1  UNL1        0.0488
      3 C         139.1955  140.3527  169.1099 C.3     1  UNL1        0.0118
      4 C         139.5912  140.3499  170.5567 C.3     1  UNL1        0.0646
      5 C         141.0622  140.6327  170.6356 C.2     1  UNL1        0.1504
      6 O         141.8767  140.7221  171.8921 O.2     1  UNL1       -0.2961
      7 C         141.5757  140.8102  169.2375 C.3     1  UNL1        0.0626
      8 C         142.8022  141.0948  168.4222 C.3     1  UNL1        0.0271
      9 C         142.4066  141.0976  166.9752 C.3     1  UNL1        0.0982
     10 N         143.3213  141.3405  165.8116 N.3     1  UNL1       -0.2697
     11 C         143.9669  142.6827  165.6324 C.3     1  UNL1        0.0722
     12 C         144.8816  142.9256  164.4688 C.3     1  UNL1        0.0187
     13 C         145.1508  141.8264  163.4842 C.3     1  UNL1        0.0183
     14 C         144.5053  140.4843  163.6633 C.3     1  UNL1        0.0670
     15 N         144.7745  139.3852  162.6787 N.3     1  UNL1       -0.3211
     16 C         143.5905  140.2414  164.8270 C.3     1  UNL1        0.0878
     17 H         145.4131  139.7228  161.9585 H       1  UNL1        0.1189
     18 H         143.8979  139.0938  162.2463 H       1  UNL1        0.1189
     19 O         140.1211  140.7254  165.6400 O.3     1  UNL1       -0.4778
     20 C         139.6829  144.3296  162.9814 C.ar    1  UNL1        0.0686
     21 C         140.3275  143.0822  162.4536 C.ar    1  UNL1        0.0134
     22 C         140.4735  141.8808  163.3398 C.ar    1  UNL1        0.0376
     23 C         139.9750  141.9268  164.7538 C.ar    1  UNL1        0.1385
     24 C         139.3304  143.1742  165.2816 C.ar    1  UNL1        0.0376
     25 C         139.1844  144.3756  164.3954 C.ar    1  UNL1        0.0134
     26 N         139.3908  146.7323  161.2090 N.1     1  UNL1       -0.1908
     27 C         139.5369  145.5310  162.0952 C.1     1  UNL1        0.1004
@<TRIPOS>BOND
     1    26    27    3
     2    27    20    1
     3    20    21   ar
     4    21    22   ar
     5    22    23   ar
     6    23    19    1
     7     1    19    1
     8     1     2    1
     9     2     3    1
    10     3     4    1
    11     4     5    1
    12     5     6    2
    13     5     7    1
    14     7     8    1
    15     8     9    1
    16     9    10    1
    17    10    11    1
    18    11    12    1
    19    12    13    1
    20    13    14    1
    21    14    15    1
    22    14    16    1
    23    23    24   ar
    24    24    25   ar
    25    25    20   ar
    26     9     1    1
    27    16    10    1
    28     7     2    1
    29    15    17    1
    30    15    18    1
@<TRIPOS>MOLECULE
*****
 27 30 0 0 0
SMALL
GASTEIGER

@<TRIPOS>ATOM
      1 C         140.2576  140.5408  167.2725 C.3     1  UNL1        0.1806
      2 C         141.0114  140.4991  168.5687 C.3     1  UNL1        0.0488
      3 C         141.5790  139.5847  169.6136 C.3     1  UNL1        0.0118
      4 C         142.2310  140.4316  170.6659 C.3     1  UNL1        0.0646
      5 C         142.0665  141.8695  170.2715 C.2     1  UNL1        0.1504
      6 O         142.5677  143.0570  171.0386 O.2     1  UNL1       -0.2961
      7 C         141.3127  141.9112  168.9753 C.3     1  UNL1        0.0626
      8 C         140.7452  142.8256  167.9305 C.3     1  UNL1        0.0271
      9 C         140.0930  141.9786  166.8780 C.3     1  UNL1        0.0982
     10 N         139.3984  142.4813  165.6473 N.3     1  UNL1       -0.2697
     11 C         139.7081  143.8500  165.1174 C.3     1  UNL1        0.0722
     12 C         139.0135  144.3526  163.8867 C.3     1  UNL1        0.0187
     13 C         138.0090  143.4866  163.1858 C.3     1  UNL1        0.0183
     14 C         137.6993  142.1179  163.7157 C.3     1  UNL1        0.0670
     15 N         136.6949  141.2520  163.0148 N.3     1  UNL1       -0.3211
     16 C         138.3940  141.6153  164.9465 C.3     1  UNL1        0.0878
     17 H         136.3247  141.7483  162.2043 H       1  UNL1        0.1189
     18 H         135.9323  141.0296  163.6547 H       1  UNL1        0.1189
     19 O         139.7564  139.3532  166.5055 O.3     1  UNL1       -0.4778
     20 C         141.7741  138.1360  162.6717 C.ar    1  UNL1        0.0686
     21 C         142.4972  139.0066  163.6562 C.ar    1  UNL1        0.0134
     22 C         141.8246  139.4123  164.9342 C.ar    1  UNL1        0.0376
     23 C         140.4290  138.9475  165.2276 C.ar    1  UNL1        0.1385
     24 C         139.7059  138.0769  164.2430 C.ar    1  UNL1        0.0376
     25 C         140.3784  137.6712  162.9651 C.ar    1  UNL1        0.0134
     26 N         143.1192  137.3246  160.1160 N.1     1  UNL1       -0.1908
     27 C         142.4467  137.7303  161.3938 C.1     1  UNL1        0.1004
@<TRIPOS>BOND
     1    26    27    3
     2    27    20    1
     3    20    21   ar
     4    21    22   ar
     5    22    23   ar
     6    23    19    1
     7     1    19    1
     8     1     2    1
     9     2     3    1
    10     3     4    1
    11     4     5    1
    12     5     6    2
    13     5     7    1
    14     7     8    1
    15     8     9    1
    16     9    10    1
    17    10    11    1
    18    11    12    1
    19    12    13    1
    20    13    14    1
    21    14    15    1
    22    14    16    1
    23    23    24   ar
    24    24    25   ar
    25    25    20   ar
    26     9     1    1
    27    16    10    1
    28     7     2    1
    29    15    17    1
    30    15    18    1
