@<TRIPOS>MOLECULE
*****
 24 26 0 0 0
SMALL
GASTEIGER

@<TRIPOS>ATOM
      1 C         139.3879  139.8729  167.8126 C.ar    1  UNL1        0.1384
      2 C         140.5040  140.0837  168.7924 C.ar    1  UNL1        0.0366
      3 C         141.7200  140.8633  168.3878 C.ar    1  UNL1       -0.0014
      4 C         141.8198  141.4322  167.0034 C.ar    1  UNL1       -0.0245
      5 C         140.7037  141.2215  166.0238 C.ar    1  UNL1       -0.0217
      6 C         139.4878  140.4418  166.4283 C.ar    1  UNL1        0.0324
      7 C         140.6018  141.6988  164.6053 C.3     1  UNL1        0.0434
      8 C         141.5908  142.5048  163.8164 C.3     1  UNL1        0.0768
      9 N         142.9259  143.0324  164.2510 N.3     1  UNL1       -0.2720
     10 C         143.6019  142.8845  165.5819 C.3     1  UNL1        0.0768
     11 C         143.1096  142.1723  166.8069 C.3     1  UNL1        0.0433
     12 C         137.4481  138.2547  167.2060 C.3     1  UNL1        0.2525
     13 O         138.1720  139.0933  168.2172 O.3     1  UNL1       -0.4714
     14 C         143.6855  143.8110  163.2182 C.3     1  UNL1        0.0749
     15 C         144.6295  143.1047  162.2907 C.3     1  UNL1        0.0529
     16 C         145.2300  141.7895  162.6904 C.3     1  UNL1        0.1667
     17 F         146.4881  141.7566  163.5065 F       1  UNL1       -0.2369
     18 C         144.5725  140.5073  162.2739 C.3     1  UNL1        0.0616
     19 C         143.8478  139.6723  163.2876 C.ar    1  UNL1       -0.0194
     20 C         144.4347  139.4742  164.6537 C.ar    1  UNL1       -0.0042
     21 C         143.7100  138.6392  165.6674 C.ar    1  UNL1       -0.0003
     22 C         142.3985  138.0022  165.3150 C.ar    1  UNL1       -0.0000
     23 C         141.8117  138.2003  163.9487 C.ar    1  UNL1       -0.0003
     24 C         142.5363  139.0354  162.9350 C.ar    1  UNL1       -0.0042
@<TRIPOS>BOND
     1    12    13    1
     2    13     1    1
     3     1     2   ar
     4     2     3   ar
     5     3     4   ar
     6     4     5   ar
     7     5     6   ar
     8     5     7    1
     9     7     8    1
    10     8     9    1
    11     9    14    1
    12    14    15    1
    13    15    16    1
    14    16    17    1
    15    16    18    1
    16    18    19    1
    17    19    20   ar
    18    20    21   ar
    19    21    22   ar
    20    22    23   ar
    21    23    24   ar
    22     9    10    1
    23    10    11    1
    24     6     1   ar
    25    24    19   ar
    26    11     4    1
@<TRIPOS>MOLECULE
*****
 24 26 0 0 0
SMALL
GASTEIGER

@<TRIPOS>ATOM
      1 C         142.8938  139.0424  167.5020 C.ar    1  UNL1        0.1384
      2 C         143.2239  138.2534  166.2696 C.ar    1  UNL1        0.0366
      3 C         142.8842  138.8011  164.9151 C.ar    1  UNL1       -0.0014
      4 C         142.2145  140.1378  164.7929 C.ar    1  UNL1       -0.0245
      5 C         141.8845  140.9267  166.0252 C.ar    1  UNL1       -0.0217
      6 C         142.2241  140.3791  167.3797 C.ar    1  UNL1        0.0324
      7 C         141.2231  142.2692  166.1270 C.3     1  UNL1        0.0434
      8 C         140.7284  143.1543  165.0215 C.3     1  UNL1        0.0768
      9 N         140.7730  142.9154  163.5414 N.3     1  UNL1       -0.2720
     10 C         141.3232  141.7326  162.8010 C.3     1  UNL1        0.0768
     11 C         141.9647  140.4964  163.3580 C.3     1  UNL1        0.0433
     12 C         142.4855  138.9700  170.0667 C.3     1  UNL1        0.2525
     13 O         143.2334  138.4947  168.8564 O.3     1  UNL1       -0.4714
     14 C         140.1903  144.0034  162.6888 C.3     1  UNL1        0.0749
     15 C         138.7132  144.0439  162.4305 C.3     1  UNL1        0.0529
     16 C         137.7810  143.2291  163.2773 C.3     1  UNL1        0.1667
     17 F         137.2694  143.7819  164.5745 F       1  UNL1       -0.2369
     18 C         137.3603  141.8616  162.8269 C.3     1  UNL1        0.0616
     19 C         137.9198  140.6446  163.5020 C.ar    1  UNL1       -0.0194
     20 C         138.3389  139.4591  162.6840 C.ar    1  UNL1       -0.0042
     21 C         138.8984  138.2421  163.3591 C.ar    1  UNL1       -0.0003
     22 C         139.0388  138.2104  164.8522 C.ar    1  UNL1       -0.0000
     23 C         138.6196  139.3959  165.6701 C.ar    1  UNL1       -0.0003
     24 C         138.0602  140.6130  164.9951 C.ar    1  UNL1       -0.0042
@<TRIPOS>BOND
     1    12    13    1
     2    13     1    1
     3     1     2   ar
     4     2     3   ar
     5     3     4   ar
     6     4     5   ar
     7     5     6   ar
     8     5     7    1
     9     7     8    1
    10     8     9    1
    11     9    14    1
    12    14    15    1
    13    15    16    1
    14    16    17    1
    15    16    18    1
    16    18    19    1
    17    19    20   ar
    18    20    21   ar
    19    21    22   ar
    20    22    23   ar
    21    23    24   ar
    22     9    10    1
    23    10    11    1
    24     6     1   ar
    25    24    19   ar
    26    11     4    1
@<TRIPOS>MOLECULE
*****
 24 26 0 0 0
SMALL
GASTEIGER

@<TRIPOS>ATOM
      1 C         140.1482  140.1573  168.4784 C.ar    1  UNL1        0.1384
      2 C         139.1318  139.7954  167.4362 C.ar    1  UNL1        0.0366
      3 C         139.3044  140.2698  166.0237 C.ar    1  UNL1       -0.0014
      4 C         140.4934  141.1061  165.6534 C.ar    1  UNL1       -0.0245
      5 C         141.5096  141.4679  166.6956 C.ar    1  UNL1       -0.0217
      6 C         141.3371  140.9935  168.1080 C.ar    1  UNL1        0.0324
      7 C         142.7580  142.2851  166.5406 C.3     1  UNL1        0.0434
      8 C         143.2982  142.9423  165.3051 C.3     1  UNL1        0.0768
      9 N         142.7236  142.9446  163.9197 N.3     1  UNL1       -0.2720
     10 C         141.4668  142.2903  163.4273 C.3     1  UNL1        0.0768
     11 C         140.4743  141.4721  164.1988 C.3     1  UNL1        0.0433
     12 C         140.6689  140.3981  171.0123 C.3     1  UNL1        0.2525
     13 O         139.9755  139.6828  169.8909 O.3     1  UNL1       -0.4714
     14 C         143.5096  143.7013  162.8904 C.3     1  UNL1        0.0749
     15 C         144.4965  142.9802  162.0208 C.3     1  UNL1        0.0529
     16 C         145.1534  141.7248  162.5134 C.3     1  UNL1        0.1667
     17 F         146.3946  141.8071  163.3515 F       1  UNL1       -0.2369
     18 C         144.5689  140.3873  162.1680 C.3     1  UNL1        0.0616
     19 C         143.8622  139.5836  163.2190 C.ar    1  UNL1       -0.0194
     20 C         144.4090  139.5281  164.6147 C.ar    1  UNL1       -0.0042
     21 C         143.7023  138.7244  165.6656 C.ar    1  UNL1       -0.0003
     22 C         142.4488  137.9761  165.3210 C.ar    1  UNL1       -0.0000
     23 C         141.9020  138.0316  163.9252 C.ar    1  UNL1       -0.0003
     24 C         142.6087  138.8354  162.8742 C.ar    1  UNL1       -0.0042
@<TRIPOS>BOND
     1    12    13    1
     2    13     1    1
     3     1     2   ar
     4     2     3   ar
     5     3     4   ar
     6     4     5   ar
     7     5     6   ar
     8     5     7    1
     9     7     8    1
    10     8     9    1
    11     9    14    1
    12    14    15    1
    13    15    16    1
    14    16    17    1
    15    16    18    1
    16    18    19    1
    17    19    20   ar
    18    20    21   ar
    19    21    22   ar
    20    22    23   ar
    21    23    24   ar
    22     9    10    1
    23    10    11    1
    24     6     1   ar
    25    24    19   ar
    26    11     4    1
@<TRIPOS>MOLECULE
*****
 24 26 0 0 0
SMALL
GASTEIGER

@<TRIPOS>ATOM
      1 C         140.3221  141.5142  169.0972 C.ar    1  UNL1        0.1384
      2 C         140.6516  142.7691  168.3444 C.ar    1  UNL1        0.0366
      3 C         140.3983  142.8464  166.8679 C.ar    1  UNL1       -0.0014
      4 C         139.8155  141.6688  166.1443 C.ar    1  UNL1       -0.0245
      5 C         139.4861  140.4140  166.8971 C.ar    1  UNL1       -0.0217
      6 C         139.7393  140.3367  168.3735 C.ar    1  UNL1        0.0324
      7 C         138.9032  139.1349  166.3734 C.3     1  UNL1        0.0434
      8 C         138.5059  138.7948  164.9674 C.3     1  UNL1        0.0768
      9 N         138.5933  139.6498  163.7382 N.3     1  UNL1       -0.2720
     10 C         139.0996  141.0560  163.6110 C.3     1  UNL1        0.0768
     11 C         139.6435  141.9546  164.6818 C.3     1  UNL1        0.0433
     12 C         141.9208  141.0111  171.0824 C.3     1  UNL1        0.2525
     13 O         140.5755  141.4370  170.5736 O.3     1  UNL1       -0.4714
     14 C         138.1106  139.0146  162.4679 C.3     1  UNL1        0.0749
     15 C         138.9559  137.9876  161.7745 C.3     1  UNL1        0.0529
     16 C         140.4395  138.1832  161.6709 C.3     1  UNL1        0.1667
     17 F         141.0127  138.9898  160.5436 F       1  UNL1       -0.2369
     18 C         141.3498  137.5722  162.6945 C.3     1  UNL1        0.0616
     19 C         141.9709  138.4326  163.7547 C.ar    1  UNL1       -0.0194
     20 C         142.1015  137.9175  165.1574 C.ar    1  UNL1       -0.0042
     21 C         142.7226  138.7779  166.2175 C.ar    1  UNL1       -0.0003
     22 C         143.2132  140.1534  165.8751 C.ar    1  UNL1       -0.0000
     23 C         143.0826  140.6685  164.4723 C.ar    1  UNL1       -0.0003
     24 C         142.4615  139.8081  163.4121 C.ar    1  UNL1       -0.0042
@<TRIPOS>BOND
     1    12    13    1
     2    13     1    1
     3     1     2   ar
     4     2     3   ar
     5     3     4   ar
     6     4     5   ar
     7     5     6   ar
     8     5     7    1
     9     7     8    1
    10     8     9    1
    11     9    14    1
    12    14    15    1
    13    15    16    1
    14    16    17    1
    15    16    18    1
    16    18    19    1
    17    19    20   ar
    18    20    21   ar
    19    21    22   ar
    20    22    23   ar
    21    23    24   ar
    22     9    10    1
    23    10    11    1
    24     6     1   ar
    25    24    19   ar
    26    11     4    1
@<TRIPOS>MOLECULE
*****
 24 26 0 0 0
SMALL
GASTEIGER

@<TRIPOS>ATOM
      1 C         138.5793  138.2968  165.5674 C.ar    1  UNL1        0.1384
      2 C         139.2038  137.7539  164.3163 C.ar    1  UNL1        0.0366
      3 C         139.9587  138.6679  163.3973 C.ar    1  UNL1       -0.0014
      4 C         140.0892  140.1249  163.7295 C.ar    1  UNL1       -0.0245
      5 C         139.4648  140.6677  164.9805 C.ar    1  UNL1       -0.0217
      6 C         138.7098  139.7538  165.8995 C.ar    1  UNL1        0.0324
      7 C         139.4751  142.0765  165.4957 C.3     1  UNL1        0.0434
      8 C         140.1126  143.2903  164.8869 C.3     1  UNL1        0.0768
      9 N         140.8969  143.3950  163.6128 N.3     1  UNL1       -0.2720
     10 C         141.2378  142.3120  162.6325 C.3     1  UNL1        0.0768
     11 C         140.8783  140.8566  162.6844 C.3     1  UNL1        0.0433
     12 C         137.0256  137.9525  167.6210 C.3     1  UNL1        0.2525
     13 O         137.8244  137.3827  166.4864 O.3     1  UNL1       -0.4714
     14 C         141.4082  144.7639  163.2739 C.3     1  UNL1        0.0749
     15 C         142.7044  145.2457  163.8553 C.3     1  UNL1        0.0529
     16 C         143.9040  144.3452  163.8620 C.3     1  UNL1        0.1667
     17 F         144.6622  144.0966  162.5919 F       1  UNL1       -0.2369
     18 C         144.3455  143.6935  165.1388 C.3     1  UNL1        0.0616
     19 C         143.8447  142.3251  165.4946 C.ar    1  UNL1       -0.0194
     20 C         144.1510  141.1589  164.6022 C.ar    1  UNL1       -0.0042
     21 C         143.6501  139.7905  164.9580 C.ar    1  UNL1       -0.0003
     22 C         142.8430  139.5882  166.2060 C.ar    1  UNL1       -0.0000
     23 C         142.5368  140.7544  167.0983 C.ar    1  UNL1       -0.0003
     24 C         143.0376  142.1229  166.7426 C.ar    1  UNL1       -0.0042
@<TRIPOS>BOND
     1    12    13    1
     2    13     1    1
     3     1     2   ar
     4     2     3   ar
     5     3     4   ar
     6     4     5   ar
     7     5     6   ar
     8     5     7    1
     9     7     8    1
    10     8     9    1
    11     9    14    1
    12    14    15    1
    13    15    16    1
    14    16    17    1
    15    16    18    1
    16    18    19    1
    17    19    20   ar
    18    20    21   ar
    19    21    22   ar
    20    22    23   ar
    21    23    24   ar
    22     9    10    1
    23    10    11    1
    24     6     1   ar
    25    24    19   ar
    26    11     4    1
@<TRIPOS>MOLECULE
*****
 24 26 0 0 0
SMALL
GASTEIGER

@<TRIPOS>ATOM
      1 C         141.4730  142.0263  168.9262 C.ar    1  UNL1        0.1384
      2 C         140.6653  140.9700  169.6204 C.ar    1  UNL1        0.0366
      3 C         139.7469  140.0869  168.8287 C.ar    1  UNL1       -0.0014
      4 C         139.6363  140.2601  167.3428 C.ar    1  UNL1       -0.0245
      5 C         140.4440  141.3163  166.6487 C.ar    1  UNL1       -0.0217
      6 C         141.3624  142.1994  167.4403 C.ar    1  UNL1        0.0324
      7 C         140.4832  141.6545  165.1877 C.3     1  UNL1        0.0434
      8 C         139.7242  141.0198  164.0602 C.3     1  UNL1        0.0768
      9 N         138.7388  139.8903  164.1152 N.3     1  UNL1       -0.2720
     10 C         138.2688  139.1165  165.3111 C.3     1  UNL1        0.0768
     11 C         138.6682  139.2810  166.7476 C.3     1  UNL1        0.0433
     12 C         143.8181  142.5021  169.9380 C.3     1  UNL1        0.2525
     13 O         142.3913  142.9094  169.7179 O.3     1  UNL1       -0.4714
     14 C         138.1447  139.4804  162.8002 C.3     1  UNL1        0.0749
     15 C         138.5443  138.1794  162.1696 C.3     1  UNL1        0.0529
     16 C         139.9923  137.8840  161.9126 C.3     1  UNL1        0.1667
     17 F         140.6036  138.2260  160.5863 F       1  UNL1       -0.2369
     18 C         140.8289  137.2465  162.9820 C.3     1  UNL1        0.0616
     19 C         141.8637  138.0553  163.7066 C.ar    1  UNL1       -0.0194
     20 C         141.9132  138.0398  165.2058 C.ar    1  UNL1       -0.0042
     21 C         142.9480  138.8487  165.9303 C.ar    1  UNL1       -0.0003
     22 C         143.9332  139.6730  165.1559 C.ar    1  UNL1       -0.0000
     23 C         143.8836  139.6885  163.6568 C.ar    1  UNL1       -0.0003
     24 C         142.8489  138.8796  162.9321 C.ar    1  UNL1       -0.0042
@<TRIPOS>BOND
     1    12    13    1
     2    13     1    1
     3     1     2   ar
     4     2     3   ar
     5     3     4   ar
     6     4     5   ar
     7     5     6   ar
     8     5     7    1
     9     7     8    1
    10     8     9    1
    11     9    14    1
    12    14    15    1
    13    15    16    1
    14    16    17    1
    15    16    18    1
    16    18    19    1
    17    19    20   ar
    18    20    21   ar
    19    21    22   ar
    20    22    23   ar
    21    23    24   ar
    22     9    10    1
    23    10    11    1
    24     6     1   ar
    25    24    19   ar
    26    11     4    1
@<TRIPOS>MOLECULE
*****
 24 26 0 0 0
SMALL
GASTEIGER

@<TRIPOS>ATOM
      1 C         138.7599  143.6954  162.7581 C.ar    1  UNL1        0.1384
      2 C         138.0556  142.4235  162.3890 C.ar    1  UNL1        0.0366
      3 C         138.0125  141.2811  163.3601 C.ar    1  UNL1       -0.0014
      4 C         138.6738  141.4106  164.7003 C.ar    1  UNL1       -0.0245
      5 C         139.3781  142.6824  165.0693 C.ar    1  UNL1       -0.0217
      6 C         139.4212  143.8249  164.0982 C.ar    1  UNL1        0.0324
      7 C         140.0963  143.0182  166.3427 C.3     1  UNL1        0.0434
      8 C         140.2876  142.1650  167.5615 C.3     1  UNL1        0.0768
      9 N         139.8079  140.7654  167.8079 N.3     1  UNL1       -0.2720
     10 C         139.0184  139.8731  166.8965 C.3     1  UNL1        0.0768
     11 C         138.5137  140.1603  165.5134 C.3     1  UNL1        0.0433
     12 C         139.7753  145.9612  161.9932 C.3     1  UNL1        0.2525
     13 O         138.8030  144.8378  161.7870 O.3     1  UNL1       -0.4714
     14 C         140.1648  140.1805  169.1423 C.3     1  UNL1        0.0749
     15 C         141.5246  139.5863  169.3613 C.3     1  UNL1        0.0529
     16 C         142.6536  139.9361  168.4378 C.3     1  UNL1        0.1667
     17 F         143.4041  141.2213  168.6241 F       1  UNL1       -0.2369
     18 C         143.0321  139.0006  167.3280 C.3     1  UNL1        0.0616
     19 C         142.5488  139.2590  165.9317 C.ar    1  UNL1       -0.0194
     20 C         142.7843  140.5950  165.2917 C.ar    1  UNL1       -0.0042
     21 C         142.3010  140.8533  163.8954 C.ar    1  UNL1       -0.0003
     22 C         141.5822  139.7757  163.1391 C.ar    1  UNL1       -0.0000
     23 C         141.3467  138.4397  163.7791 C.ar    1  UNL1       -0.0003
     24 C         141.8300  138.1813  165.1755 C.ar    1  UNL1       -0.0042
@<TRIPOS>BOND
     1    12    13    1
     2    13     1    1
     3     1     2   ar
     4     2     3   ar
     5     3     4   ar
     6     4     5   ar
     7     5     6   ar
     8     5     7    1
     9     7     8    1
    10     8     9    1
    11     9    14    1
    12    14    15    1
    13    15    16    1
    14    16    17    1
    15    16    18    1
    16    18    19    1
    17    19    20   ar
    18    20    21   ar
    19    21    22   ar
    20    22    23   ar
    21    23    24   ar
    22     9    10    1
    23    10    11    1
    24     6     1   ar
    25    24    19   ar
    26    11     4    1
@<TRIPOS>MOLECULE
*****
 24 26 0 0 0
SMALL
GASTEIGER

@<TRIPOS>ATOM
      1 C         139.1895  139.6981  167.7843 C.ar    1  UNL1        0.1384
      2 C         139.9250  140.4130  168.8789 C.ar    1  UNL1        0.0366
      3 C         141.1513  141.2155  168.5587 C.ar    1  UNL1       -0.0014
      4 C         141.6419  141.3030  167.1438 C.ar    1  UNL1       -0.0245
      5 C         140.9064  140.5882  166.0494 C.ar    1  UNL1       -0.0217
      6 C         139.6803  139.7857  166.3696 C.ar    1  UNL1        0.0324
      7 C         141.2228  140.5441  164.5837 C.3     1  UNL1        0.0434
      8 C         142.3530  141.2042  163.8507 C.3     1  UNL1        0.0768
      9 N         143.4456  142.0712  164.4022 N.3     1  UNL1       -0.2720
     10 C         143.6782  142.4924  165.8230 C.3     1  UNL1        0.0768
     11 C         142.8755  142.1505  167.0431 C.3     1  UNL1        0.0433
     12 C         137.3856  137.9669  167.0782 C.3     1  UNL1        0.2525
     13 O         137.9634  138.8957  168.1046 O.3     1  UNL1       -0.4714
     14 C         144.4368  142.5850  163.4005 C.3     1  UNL1        0.0749
     15 C         144.1079  143.7900  162.5699 C.3     1  UNL1        0.0529
     16 C         143.1471  144.8188  163.0882 C.3     1  UNL1        0.1667
     17 F         143.5250  145.6744  164.2608 F       1  UNL1       -0.2369
     18 C         141.8085  144.9918  162.4339 C.3     1  UNL1        0.0616
     19 C         140.5579  144.6236  163.1757 C.ar    1  UNL1       -0.0194
     20 C         140.6229  144.2921  164.6372 C.ar    1  UNL1       -0.0042
     21 C         139.3722  143.9239  165.3790 C.ar    1  UNL1       -0.0003
     22 C         138.0566  143.8872  164.6594 C.ar    1  UNL1       -0.0000
     23 C         137.9917  144.2187  163.1979 C.ar    1  UNL1       -0.0003
     24 C         139.2424  144.5869  162.4561 C.ar    1  UNL1       -0.0042
@<TRIPOS>BOND
     1    12    13    1
     2    13     1    1
     3     1     2   ar
     4     2     3   ar
     5     3     4   ar
     6     4     5   ar
     7     5     6   ar
     8     5     7    1
     9     7     8    1
    10     8     9    1
    11     9    14    1
    12    14    15    1
    13    15    16    1
    14    16    17    1
    15    16    18    1
    16    18    19    1
    17    19    20   ar
    18    20    21   ar
    19    21    22   ar
    20    22    23   ar
    21    23    24   ar
    22     9    10    1
    23    10    11    1
    24     6     1   ar
    25    24    19   ar
    26    11     4    1
@<TRIPOS>MOLECULE
*****
 24 26 0 0 0
SMALL
GASTEIGER

@<TRIPOS>ATOM
      1 C         138.9947  139.6919  167.5173 C.ar    1  UNL1        0.1384
      2 C         138.1475  139.1606  166.3993 C.ar    1  UNL1        0.0366
      3 C         138.5645  139.3760  164.9745 C.ar    1  UNL1       -0.0014
      4 C         139.8289  140.1228  164.6679 C.ar    1  UNL1       -0.0245
      5 C         140.6760  140.6540  165.7859 C.ar    1  UNL1       -0.0217
      6 C         140.2590  140.4386  167.2106 C.ar    1  UNL1        0.0324
      7 C         141.9632  141.4196  165.7015 C.3     1  UNL1        0.0434
      8 C         142.7211  141.8429  164.4782 C.3     1  UNL1        0.0768
      9 N         142.3790  141.6052  163.0373 N.3     1  UNL1       -0.2720
     10 C         141.1945  140.8855  162.4636 C.3     1  UNL1        0.0768
     11 C         140.0596  140.2258  163.1893 C.3     1  UNL1        0.0433
     12 C         139.0414  140.4217  170.0102 C.3     1  UNL1        0.2525
     13 O         138.5776  139.4765  168.9419 O.3     1  UNL1       -0.4714
     14 C         143.3497  142.1607  162.0377 C.3     1  UNL1        0.0749
     15 C         143.1241  143.5221  161.4495 C.3     1  UNL1        0.0529
     16 C         142.5043  144.6053  162.2816 C.3     1  UNL1        0.1667
     17 F         143.3146  145.2954  163.3386 F       1  UNL1       -0.2369
     18 C         141.0744  144.9985  162.0567 C.3     1  UNL1        0.0616
     19 C         139.9894  144.3955  162.8989 C.ar    1  UNL1       -0.0194
     20 C         138.8206  143.7197  162.2452 C.ar    1  UNL1       -0.0042
     21 C         137.7357  143.1168  163.0874 C.ar    1  UNL1       -0.0003
     22 C         137.8195  143.1895  164.5833 C.ar    1  UNL1       -0.0000
     23 C         138.9883  143.8653  165.2370 C.ar    1  UNL1       -0.0003
     24 C         140.0733  144.4683  164.3948 C.ar    1  UNL1       -0.0042
@<TRIPOS>BOND
     1    12    13    1
     2    13     1    1
     3     1     2   ar
     4     2     3   ar
     5     3     4   ar
     6     4     5   ar
     7     5     6   ar
     8     5     7    1
     9     7     8    1
    10     8     9    1
    11     9    14    1
    12    14    15    1
    13    15    16    1
    14    16    17    1
    15    16    18    1
    16    18    19    1
    17    19    20   ar
    18    20    21   ar
    19    21    22   ar
    20    22    23   ar
    21    23    24   ar
    22     9    10    1
    23    10    11    1
    24     6     1   ar
    25    24    19   ar
    26    11     4    1
