@<TRIPOS>MOLECULE
*****
 40 43 0 0 0
SMALL
GASTEIGER

@<TRIPOS>ATOM
      1 N         139.4195  139.8716  160.8060 N.3     1  UNL1       -0.2711
      2 C         138.0432  140.3916  160.5138 C.3     1  UNL1        0.0933
      3 C         138.2676  140.1621  159.0485 C.3     1  UNL1        0.1035
      4 C         139.6439  139.6420  159.3408 C.3     1  UNL1        0.0933
      5 C         141.8629  139.2554  164.5343 C.3     1  UNL1        0.1085
      6 O         142.7426  138.2225  165.1739 O.3     1  UNL1       -0.3826
      7 C         141.1110  140.5378  164.3338 C.3     1  UNL1        0.0326
      8 C         140.2965  140.7432  163.0910 C.3     1  UNL1        0.0187
      9 C         140.2339  139.6663  162.0488 C.3     1  UNL1        0.0578
     10 C         140.9858  138.3839  162.2493 C.3     1  UNL1        0.0187
     11 C         141.8003  138.1785  163.4921 C.3     1  UNL1        0.0326
     12 H         143.0656  138.5556  166.0258 H       1  UNL1        0.2107
     13 C         142.9672  141.4101  168.3274 C.ar    1  UNL1        0.2207
     14 N         143.0525  142.1207  167.0092 N.ar    1  UNL1       -0.2107
     15 C         142.6844  141.4024  165.7448 C.ar    1  UNL1        0.1000
     16 C         142.2310  139.9736  165.7987 C.ar    1  UNL1        0.0208
     17 C         142.1457  139.2631  167.1169 C.ar    1  UNL1       -0.0001
     18 C         142.5138  139.9813  168.3813 C.ar    1  UNL1        0.0311
     19 C         142.4285  139.2706  169.6995 C.3     1  UNL1        0.0359
     20 C         142.3811  143.1129  170.2001 C.3     1  UNL1        0.2542
     21 O         143.3353  142.1283  169.5918 O.3     1  UNL1       -0.4563
     22 N         137.4531  140.3674  157.8058 N.am    1  UNL1       -0.3018
     23 C         137.4723  141.6947  157.1073 C.2     1  UNL1        0.2426
     24 O         138.3060  142.8166  157.6515 O.2     1  UNL1       -0.2733
     25 H         136.9058  139.6311  157.4486 H       1  UNL1        0.1495
     26 C         136.6578  141.9001  155.8645 C.3     1  UNL1        0.1759
     27 N         135.1598  141.8724  155.9365 N.am    1  UNL1       -0.2931
     28 C         134.4315  140.5614  155.9054 C.2     1  UNL1        0.2462
     29 O         135.2013  139.2782  155.8023 O.2     1  UNL1       -0.2701
     30 H         134.6546  142.7147  156.0042 H       1  UNL1        0.1502
     31 C         132.9335  140.5338  155.9775 C.ar    1  UNL1        0.0533
     32 C         132.1295  141.5914  155.2810 C.ar    1  UNL1        0.0045
     33 C         130.6315  141.5638  155.3530 C.ar    1  UNL1        0.0001
     34 C         129.9375  140.4785  156.1216 C.ar    1  UNL1        0.0039
     35 C         130.7414  139.4209  156.8180 C.ar    1  UNL1        0.0716
     36 C         132.2395  139.4486  156.7460 C.ar    1  UNL1        0.0084
     37 C         130.0474  138.3357  157.5866 C.3     1  UNL1        0.4186
     38 F         129.3535  137.2505  158.3551 F       1  UNL1       -0.1659
     39 F         129.7493  139.3075  158.6896 F       1  UNL1       -0.1659
     40 F         130.3456  137.3638  156.4835 F       1  UNL1       -0.1659
@<TRIPOS>BOND
     1    20    21    1
     2    21    13    1
     3    13    14   ar
     4    14    15   ar
     5    15    16   ar
     6    16     5    1
     7     5     6    1
     8     5     7    1
     9     7     8    1
    10     8     9    1
    11     9     1    1
    12     1     2    1
    13     2     3    1
    14     3    22    1
    15    22    23   am
    16    23    24    2
    17    23    26    1
    18    26    27    1
    19    27    28   am
    20    28    29    2
    21    28    31    1
    22    31    32   ar
    23    32    33   ar
    24    33    34   ar
    25    34    35   ar
    26    35    37    1
    27    37    38    1
    28    37    39    1
    29    37    40    1
    30    35    36   ar
    31     3     4    1
    32     9    10    1
    33    10    11    1
    34    16    17   ar
    35    17    18   ar
    36    18    19    1
    37    18    13   ar
    38    11     5    1
    39     4     1    1
    40    36    31   ar
    41     6    12    1
    42    22    25    1
    43    27    30    1
@<TRIPOS>MOLECULE
*****
 40 43 0 0 0
SMALL
GASTEIGER

@<TRIPOS>ATOM
      1 N         140.1202  142.3496  161.0770 N.3     1  UNL1       -0.2711
      2 C         140.3739  142.6143  159.6225 C.3     1  UNL1        0.0933
      3 C         138.9162  142.4131  159.3316 C.3     1  UNL1        0.1035
      4 C         138.6625  142.1484  160.7862 C.3     1  UNL1        0.0933
      5 C         142.6746  142.2152  164.7793 C.3     1  UNL1        0.1085
      6 O         143.9388  142.8099  165.3253 O.3     1  UNL1       -0.3826
      7 C         141.4245  141.3901  164.7003 C.3     1  UNL1        0.0326
      8 C         140.5729  141.4349  163.4662 C.3     1  UNL1        0.0187
      9 C         140.9716  142.3048  162.3111 C.3     1  UNL1        0.0578
     10 C         142.2218  143.1299  162.3901 C.3     1  UNL1        0.0187
     11 C         143.0733  143.0851  163.6242 C.3     1  UNL1        0.0326
     12 H         144.1004  142.4635  166.2168 H       1  UNL1        0.2107
     13 C         142.7957  140.2251  168.8135 C.ar    1  UNL1        0.2207
     14 N         142.5257  139.4106  167.5832 N.ar    1  UNL1       -0.2107
     15 C         142.4853  140.0740  166.2385 C.ar    1  UNL1        0.1000
     16 C         142.7150  141.5518  166.1240 C.ar    1  UNL1        0.0208
     17 C         142.9851  142.3663  167.3543 C.ar    1  UNL1       -0.0001
     18 C         143.0254  141.7030  168.6990 C.ar    1  UNL1        0.0311
     19 C         143.2955  142.5176  169.9293 C.3     1  UNL1        0.0359
     20 C         143.0239  138.0769  170.2567 C.3     1  UNL1        0.2542
     21 O         142.8361  139.5618  170.1582 O.3     1  UNL1       -0.4563
     22 N         138.0648  142.4579  158.0975 N.am    1  UNL1       -0.3018
     23 C         137.7137  141.1872  157.3820 C.2     1  UNL1        0.2426
     24 O         138.2140  139.8717  157.9006 O.2     1  UNL1       -0.2733
     25 H         137.7364  143.3214  157.7571 H       1  UNL1        0.1495
     26 C         136.8623  141.2321  156.1478 C.3     1  UNL1        0.1759
     27 N         135.3701  141.3243  156.2690 N.am    1  UNL1       -0.2931
     28 C         134.5118  140.1607  155.8697 C.2     1  UNL1        0.2462
     29 O         135.1458  138.9049  155.3491 O.2     1  UNL1       -0.2701
     30 H         134.9540  142.1486  156.6107 H       1  UNL1        0.1502
     31 C         133.0195  140.2530  155.9910 C.ar    1  UNL1        0.0533
     32 C         132.2866  141.4060  155.3718 C.ar    1  UNL1        0.0045
     33 C         130.7944  141.4982  155.4931 C.ar    1  UNL1        0.0001
     34 C         130.0351  140.4374  156.2335 C.ar    1  UNL1        0.0039
     35 C         130.7680  139.2845  156.8527 C.ar    1  UNL1        0.0716
     36 C         132.2602  139.1922  156.7314 C.ar    1  UNL1        0.0084
     37 C         130.0087  138.2237  157.5931 C.3     1  UNL1        0.4186
     38 F         129.2494  137.1630  158.3335 F       1  UNL1       -0.1659
     39 F         129.8724  139.1431  158.7704 F       1  UNL1       -0.1659
     40 F         130.1450  137.3043  156.4158 F       1  UNL1       -0.1659
@<TRIPOS>BOND
     1    20    21    1
     2    21    13    1
     3    13    14   ar
     4    14    15   ar
     5    15    16   ar
     6    16     5    1
     7     5     6    1
     8     5     7    1
     9     7     8    1
    10     8     9    1
    11     9     1    1
    12     1     2    1
    13     2     3    1
    14     3    22    1
    15    22    23   am
    16    23    24    2
    17    23    26    1
    18    26    27    1
    19    27    28   am
    20    28    29    2
    21    28    31    1
    22    31    32   ar
    23    32    33   ar
    24    33    34   ar
    25    34    35   ar
    26    35    37    1
    27    37    38    1
    28    37    39    1
    29    37    40    1
    30    35    36   ar
    31     3     4    1
    32     9    10    1
    33    10    11    1
    34    16    17   ar
    35    17    18   ar
    36    18    19    1
    37    18    13   ar
    38    11     5    1
    39     4     1    1
    40    36    31   ar
    41     6    12    1
    42    22    25    1
    43    27    30    1
@<TRIPOS>MOLECULE
*****
 40 43 0 0 0
SMALL
GASTEIGER

@<TRIPOS>ATOM
      1 N         143.1502  139.6595  160.8891 N.3     1  UNL1       -0.2711
      2 C         143.4549  139.9234  159.4443 C.3     1  UNL1        0.0933
      3 C         142.9947  138.5393  159.0944 C.3     1  UNL1        0.1035
      4 C         142.6900  138.2754  160.5393 C.3     1  UNL1        0.0933
      5 C         143.4805  142.0361  164.6960 C.3     1  UNL1        0.1085
      6 O         144.3879  143.0338  165.3527 O.3     1  UNL1       -0.3826
      7 C         142.3165  141.1135  164.4865 C.3     1  UNL1        0.0326
      8 C         142.2064  140.3213  163.2175 C.3     1  UNL1        0.0187
      9 C         143.2602  140.4517  162.1581 C.3     1  UNL1        0.0578
     10 C         144.4242  141.3743  162.3676 C.3     1  UNL1        0.0187
     11 C         144.5343  142.1665  163.6366 C.3     1  UNL1        0.0326
     12 H         144.0286  143.2754  166.2207 H       1  UNL1        0.2107
     13 C         141.2643  142.6844  168.5584 C.ar    1  UNL1        0.2207
     14 N         140.5259  142.7284  167.2535 N.ar    1  UNL1       -0.2107
     15 C         141.2646  142.5123  165.9660 C.ar    1  UNL1        0.1000
     16 C         142.7418  142.2522  165.9835 C.ar    1  UNL1        0.0208
     17 C         143.4802  142.2082  167.2884 C.ar    1  UNL1       -0.0001
     18 C         142.7414  142.4243  168.5758 C.ar    1  UNL1        0.0311
     19 C         143.4799  142.3803  169.8808 C.3     1  UNL1        0.0359
     20 C         139.5343  141.8804  170.3221 C.3     1  UNL1        0.2542
     21 O         140.5255  142.9005  169.8459 O.3     1  UNL1       -0.4563
     22 N         142.8847  137.7472  157.8254 N.am    1  UNL1       -0.3018
     23 C         141.5559  137.6019  157.1447 C.2     1  UNL1        0.2426
     24 O         140.3372  138.2487  157.7331 O.2     1  UNL1       -0.2733
     25 H         143.6846  137.3226  157.4392 H       1  UNL1        0.1495
     26 C         141.4459  136.8098  155.8757 C.3     1  UNL1        0.1759
     27 N         141.4064  135.3112  155.9280 N.am    1  UNL1       -0.2931
     28 C         142.6767  134.5332  156.1052 C.2     1  UNL1        0.2462
     29 O         143.9862  135.2539  156.2300 O.2     1  UNL1       -0.2701
     30 H         140.5469  134.8382  155.8461 H       1  UNL1        0.1502
     31 C         142.6372  133.0347  156.1576 C.ar    1  UNL1        0.0533
     32 C         141.7016  132.2773  155.2626 C.ar    1  UNL1        0.0045
     33 C         141.6621  130.7788  155.3150 C.ar    1  UNL1        0.0001
     34 C         142.5583  130.0376  156.2624 C.ar    1  UNL1        0.0039
     35 C         143.4939  130.7949  157.1573 C.ar    1  UNL1        0.0716
     36 C         143.5334  132.2935  157.1049 C.ar    1  UNL1        0.0084
     37 C         144.3902  130.0537  158.1047 C.3     1  UNL1        0.4186
     38 F         145.2863  129.3126  159.0519 F       1  UNL1       -0.1659
     39 F         143.3592  128.9719  158.2335 F       1  UNL1       -0.1659
     40 F         145.4212  131.1356  157.9758 F       1  UNL1       -0.1659
@<TRIPOS>BOND
     1    20    21    1
     2    21    13    1
     3    13    14   ar
     4    14    15   ar
     5    15    16   ar
     6    16     5    1
     7     5     6    1
     8     5     7    1
     9     7     8    1
    10     8     9    1
    11     9     1    1
    12     1     2    1
    13     2     3    1
    14     3    22    1
    15    22    23   am
    16    23    24    2
    17    23    26    1
    18    26    27    1
    19    27    28   am
    20    28    29    2
    21    28    31    1
    22    31    32   ar
    23    32    33   ar
    24    33    34   ar
    25    34    35   ar
    26    35    37    1
    27    37    38    1
    28    37    39    1
    29    37    40    1
    30    35    36   ar
    31     3     4    1
    32     9    10    1
    33    10    11    1
    34    16    17   ar
    35    17    18   ar
    36    18    19    1
    37    18    13   ar
    38    11     5    1
    39     4     1    1
    40    36    31   ar
    41     6    12    1
    42    22    25    1
    43    27    30    1
@<TRIPOS>MOLECULE
*****
 40 43 0 0 0
SMALL
GASTEIGER

@<TRIPOS>ATOM
      1 N         140.1032  143.0894  158.6624 N.3     1  UNL1       -0.2711
      2 C         139.5107  142.5563  159.9332 C.3     1  UNL1        0.0933
      3 C         140.6342  141.5685  160.0426 C.3     1  UNL1        0.1035
      4 C         141.2267  142.1016  158.7718 C.3     1  UNL1        0.0933
      5 C         138.9762  146.3156  155.7347 C.3     1  UNL1        0.1085
      6 O         138.2294  146.4873  154.4452 O.3     1  UNL1       -0.3826
      7 C         139.7825  146.6565  156.9527 C.3     1  UNL1        0.0326
      8 C         140.1582  145.5811  157.9287 C.3     1  UNL1        0.0187
      9 C         139.7275  144.1648  157.6866 C.3     1  UNL1        0.0578
     10 C         138.9213  143.8239  156.4685 C.3     1  UNL1        0.0187
     11 C         138.5456  144.8993  155.4926 C.3     1  UNL1        0.0326
     12 H         138.2548  147.4195  154.1786 H       1  UNL1        0.2107
     13 C         139.4900  150.7433  155.1176 C.ar    1  UNL1        0.2207
     14 N         138.6660  150.2365  156.2639 N.ar    1  UNL1       -0.2107
     15 C         138.4947  148.7606  156.4696 C.ar    1  UNL1        0.1000
     16 C         139.1475  147.7915  155.5290 C.ar    1  UNL1        0.0208
     17 C         139.9715  148.2983  154.3827 C.ar    1  UNL1       -0.0001
     18 C         140.1428  149.7743  154.1770 C.ar    1  UNL1        0.0311
     19 C         140.9669  150.2811  153.0307 C.3     1  UNL1        0.0359
     20 C         138.4815  153.1364  155.0412 C.3     1  UNL1        0.2542
     21 O         139.6613  152.2193  154.9119 O.3     1  UNL1       -0.4563
     22 N         141.0098  140.4930  161.0185 N.am    1  UNL1       -0.3018
     23 C         140.5322  139.0871  160.8058 C.2     1  UNL1        0.2426
     24 O         139.6790  138.7567  159.6171 O.2     1  UNL1       -0.2733
     25 H         141.5697  140.7099  161.7987 H       1  UNL1        0.1495
     26 C         140.9077  138.0117  161.7817 C.3     1  UNL1        0.1759
     27 N         141.4203  138.3795  163.1425 N.am    1  UNL1       -0.2931
     28 C         140.4558  138.6618  164.2562 C.2     1  UNL1        0.2462
     29 O         138.9789  138.5763  164.0089 O.2     1  UNL1       -0.2701
     30 H         142.3897  138.4357  163.3048 H       1  UNL1        0.1502
     31 C         140.9684  139.0297  165.6170 C.ar    1  UNL1        0.0533
     32 C         142.4149  138.8218  165.9551 C.ar    1  UNL1        0.0045
     33 C         142.9275  139.1896  167.3159 C.ar    1  UNL1        0.0001
     34 C         141.9935  139.7655  168.3387 C.ar    1  UNL1        0.0039
     35 C         140.5470  139.9734  168.0007 C.ar    1  UNL1        0.0716
     36 C         140.0344  139.6056  166.6398 C.ar    1  UNL1        0.0084
     37 C         139.6130  140.5493  169.0235 C.3     1  UNL1        0.4186
     38 F         138.6791  141.1251  170.0462 F       1  UNL1       -0.1659
     39 F         140.7093  141.4441  169.5207 F       1  UNL1       -0.1659
     40 F         138.5167  139.6543  168.5262 F       1  UNL1       -0.1659
@<TRIPOS>BOND
     1    20    21    1
     2    21    13    1
     3    13    14   ar
     4    14    15   ar
     5    15    16   ar
     6    16     5    1
     7     5     6    1
     8     5     7    1
     9     7     8    1
    10     8     9    1
    11     9     1    1
    12     1     2    1
    13     2     3    1
    14     3    22    1
    15    22    23   am
    16    23    24    2
    17    23    26    1
    18    26    27    1
    19    27    28   am
    20    28    29    2
    21    28    31    1
    22    31    32   ar
    23    32    33   ar
    24    33    34   ar
    25    34    35   ar
    26    35    37    1
    27    37    38    1
    28    37    39    1
    29    37    40    1
    30    35    36   ar
    31     3     4    1
    32     9    10    1
    33    10    11    1
    34    16    17   ar
    35    17    18   ar
    36    18    19    1
    37    18    13   ar
    38    11     5    1
    39     4     1    1
    40    36    31   ar
    41     6    12    1
    42    22    25    1
    43    27    30    1
@<TRIPOS>MOLECULE
*****
 40 43 0 0 0
SMALL
GASTEIGER

@<TRIPOS>ATOM
      1 N         142.9070  139.9885  160.6757 N.3     1  UNL1       -0.2711
      2 C         143.3866  138.6280  160.2648 C.3     1  UNL1        0.0933
      3 C         142.7963  138.8318  158.9010 C.3     1  UNL1        0.1035
      4 C         142.3167  140.1923  159.3118 C.3     1  UNL1        0.0933
      5 C         143.1421  142.4423  164.4405 C.3     1  UNL1        0.1085
      6 O         143.8786  143.6244  164.9975 O.3     1  UNL1       -0.3826
      7 C         142.1916  141.2848  164.3578 C.3     1  UNL1        0.0326
      8 C         142.1133  140.4669  163.1028 C.3     1  UNL1        0.0187
      9 C         142.9853  140.8064  161.9306 C.3     1  UNL1        0.0578
     10 C         143.9358  141.9639  162.0133 C.3     1  UNL1        0.0187
     11 C         144.0142  142.7818  163.2683 C.3     1  UNL1        0.0326
     12 H         143.5765  143.7961  165.9032 H       1  UNL1        0.2107
     13 C         141.2931  142.6553  168.5375 C.ar    1  UNL1        0.2207
     14 N         140.4384  142.8380  167.3185 N.ar    1  UNL1       -0.2107
     15 C         141.0547  142.7670  165.9528 C.ar    1  UNL1        0.1000
     16 C         142.5258  142.5133  165.8062 C.ar    1  UNL1        0.0208
     17 C         143.3805  142.3305  167.0252 C.ar    1  UNL1       -0.0001
     18 C         142.7642  142.4015  168.3908 C.ar    1  UNL1        0.0311
     19 C         143.6190  142.2188  169.6099 C.3     1  UNL1        0.0359
     20 C         139.6255  141.7343  170.3041 C.3     1  UNL1        0.2542
     21 O         140.6768  142.7263  169.9032 O.3     1  UNL1       -0.4563
     22 N         142.7180  138.0138  157.6460 N.am    1  UNL1       -0.3018
     23 C         143.5917  138.3522  156.4745 C.2     1  UNL1        0.2426
     24 O         144.5435  139.5084  156.5580 O.2     1  UNL1       -0.2733
     25 H         142.0933  137.2549  157.5912 H       1  UNL1        0.1495
     26 C         143.5134  137.5342  155.2196 C.3     1  UNL1        0.1759
     27 N         143.5432  136.0365  155.2974 N.am    1  UNL1       -0.2931
     28 C         142.3081  135.2812  155.6899 C.2     1  UNL1        0.2462
     29 O         141.0433  136.0235  156.0045 O.2     1  UNL1       -0.2701
     30 H         144.3735  135.5493  155.0910 H       1  UNL1        0.1502
     31 C         142.3380  133.7835  155.7677 C.ar    1  UNL1        0.0533
     32 C         141.3678  132.9711  154.9624 C.ar    1  UNL1        0.0045
     33 C         141.3976  131.4735  155.0403 C.ar    1  UNL1        0.0001
     34 C         142.3978  130.7882  155.9235 C.ar    1  UNL1        0.0039
     35 C         143.3681  131.6005  156.7288 C.ar    1  UNL1        0.0716
     36 C         143.3382  133.0982  156.6510 C.ar    1  UNL1        0.0084
     37 C         144.3683  130.9152  157.6121 C.3     1  UNL1        0.4186
     38 F         145.3683  130.2300  158.4952 F       1  UNL1       -0.1659
     39 F         145.4424  131.8325  157.1073 F       1  UNL1       -0.1659
     40 F         143.2940  129.9980  158.1169 F       1  UNL1       -0.1659
@<TRIPOS>BOND
     1    20    21    1
     2    21    13    1
     3    13    14   ar
     4    14    15   ar
     5    15    16   ar
     6    16     5    1
     7     5     6    1
     8     5     7    1
     9     7     8    1
    10     8     9    1
    11     9     1    1
    12     1     2    1
    13     2     3    1
    14     3    22    1
    15    22    23   am
    16    23    24    2
    17    23    26    1
    18    26    27    1
    19    27    28   am
    20    28    29    2
    21    28    31    1
    22    31    32   ar
    23    32    33   ar
    24    33    34   ar
    25    34    35   ar
    26    35    37    1
    27    37    38    1
    28    37    39    1
    29    37    40    1
    30    35    36   ar
    31     3     4    1
    32     9    10    1
    33    10    11    1
    34    16    17   ar
    35    17    18   ar
    36    18    19    1
    37    18    13   ar
    38    11     5    1
    39     4     1    1
    40    36    31   ar
    41     6    12    1
    42    22    25    1
    43    27    30    1
@<TRIPOS>MOLECULE
*****
 40 43 0 0 0
SMALL
GASTEIGER

@<TRIPOS>ATOM
      1 N         141.0053  139.8473  160.9408 N.3     1  UNL1       -0.2711
      2 C         141.3788  138.4416  160.5741 C.3     1  UNL1        0.0933
      3 C         141.4660  138.8413  159.1310 C.3     1  UNL1        0.1035
      4 C         141.0925  140.2470  159.4977 C.3     1  UNL1        0.0933
      5 C         140.0279  141.9813  164.7802 C.3     1  UNL1        0.1085
      6 O         139.5117  143.3056  165.2595 O.3     1  UNL1       -0.3826
      7 C         140.5502  140.5756  164.8155 C.3     1  UNL1        0.0326
      8 C         140.8760  139.8642  163.5356 C.3     1  UNL1        0.0187
      9 C         140.6795  140.5586  162.2207 C.3     1  UNL1        0.0578
     10 C         140.1573  141.9643  162.1854 C.3     1  UNL1        0.0187
     11 C         139.8315  142.6756  163.4652 C.3     1  UNL1        0.0326
     12 H         139.4665  143.3035  166.2285 H       1  UNL1        0.2107
     13 C         140.0793  141.2779  169.2246 C.ar    1  UNL1        0.2207
     14 N         139.8423  140.1317  168.2865 N.ar    1  UNL1       -0.2107
     15 C         139.8252  140.3661  166.8051 C.ar    1  UNL1        0.1000
     16 C         140.0451  141.7468  166.2617 C.ar    1  UNL1        0.0208
     17 C         140.2820  142.8930  167.1997 C.ar    1  UNL1       -0.0001
     18 C         140.2992  142.6586  168.6812 C.ar    1  UNL1        0.0311
     19 C         140.5361  143.8049  169.6193 C.3     1  UNL1        0.0359
     20 C         139.8511  139.6675  171.2505 C.3     1  UNL1        0.2542
     21 O         140.0964  141.0434  170.7061 O.3     1  UNL1       -0.4563
     22 N         141.7918  138.1300  157.8511 N.am    1  UNL1       -0.3018
     23 C         140.6870  137.6634  156.9502 C.2     1  UNL1        0.2426
     24 O         139.2565  137.9082  157.3290 O.2     1  UNL1       -0.2733
     25 H         142.7308  137.9693  157.6025 H       1  UNL1        0.1495
     26 C         141.0128  136.9521  155.6704 C.3     1  UNL1        0.1759
     27 N         141.1026  135.4550  155.6463 N.am    1  UNL1       -0.2931
     28 C         142.2962  134.7656  156.2382 C.2     1  UNL1        0.2462
     29 O         143.3998  135.5735  156.8540 O.2     1  UNL1       -0.2701
     30 H         140.3782  134.9248  155.2421 H       1  UNL1        0.1502
     31 C         142.3860  133.2685  156.2142 C.ar    1  UNL1        0.0533
     32 C         141.4937  132.4782  155.3036 C.ar    1  UNL1        0.0045
     33 C         141.5835  130.9811  155.2796 C.ar    1  UNL1        0.0001
     34 C         142.5656  130.2743  156.1662 C.ar    1  UNL1        0.0039
     35 C         143.4579  131.0647  157.0767 C.ar    1  UNL1        0.0716
     36 C         143.3681  132.5618  157.1007 C.ar    1  UNL1        0.0084
     37 C         144.4401  130.3579  157.9632 C.3     1  UNL1        0.4186
     38 F         145.4221  129.6512  158.8497 F       1  UNL1       -0.1659
     39 F         145.4836  131.3798  157.6217 F       1  UNL1       -0.1659
     40 F         143.3964  129.3360  158.3048 F       1  UNL1       -0.1659
@<TRIPOS>BOND
     1    20    21    1
     2    21    13    1
     3    13    14   ar
     4    14    15   ar
     5    15    16   ar
     6    16     5    1
     7     5     6    1
     8     5     7    1
     9     7     8    1
    10     8     9    1
    11     9     1    1
    12     1     2    1
    13     2     3    1
    14     3    22    1
    15    22    23   am
    16    23    24    2
    17    23    26    1
    18    26    27    1
    19    27    28   am
    20    28    29    2
    21    28    31    1
    22    31    32   ar
    23    32    33   ar
    24    33    34   ar
    25    34    35   ar
    26    35    37    1
    27    37    38    1
    28    37    39    1
    29    37    40    1
    30    35    36   ar
    31     3     4    1
    32     9    10    1
    33    10    11    1
    34    16    17   ar
    35    17    18   ar
    36    18    19    1
    37    18    13   ar
    38    11     5    1
    39     4     1    1
    40    36    31   ar
    41     6    12    1
    42    22    25    1
    43    27    30    1
@<TRIPOS>MOLECULE
*****
 40 43 0 0 0
SMALL
GASTEIGER

@<TRIPOS>ATOM
      1 N         140.4029  143.3216  159.0357 N.3     1  UNL1       -0.2711
      2 C         140.0598  143.1463  160.4854 C.3     1  UNL1        0.0933
      3 C         141.0252  142.0018  160.5755 C.3     1  UNL1        0.1035
      4 C         141.3683  142.1771  159.1258 C.3     1  UNL1        0.0933
      5 C         139.0823  146.1212  155.7695 C.3     1  UNL1        0.1085
      6 O         138.2969  146.1068  154.4917 O.3     1  UNL1       -0.3826
      7 C         139.9063  146.6371  156.9118 C.3     1  UNL1        0.0326
      8 C         140.3465  145.7038  158.0006 C.3     1  UNL1        0.0187
      9 C         139.9627  144.2548  157.9471 C.3     1  UNL1        0.0578
     10 C         139.1387  143.7389  156.8048 C.3     1  UNL1        0.0187
     11 C         138.6985  144.6721  155.7160 C.3     1  UNL1        0.0326
     12 H         138.2808  146.9993  154.1121 H       1  UNL1        0.2107
     13 C         139.4155  150.4534  154.5988 C.ar    1  UNL1        0.2207
     14 N         138.6714  150.0678  155.8428 N.ar    1  UNL1       -0.2107
     15 C         138.5603  148.6237  156.2331 C.ar    1  UNL1        0.1000
     16 C         139.1934  147.5653  155.3793 C.ar    1  UNL1        0.0208
     17 C         139.9374  147.9509  154.1353 C.ar    1  UNL1       -0.0001
     18 C         140.0485  149.3950  153.7451 C.ar    1  UNL1        0.0311
     19 C         140.7926  149.7806  152.5010 C.3     1  UNL1        0.0359
     20 C         138.4751  152.5229  153.3406 C.3     1  UNL1        0.2542
     21 O         139.5265  151.8975  154.2086 O.3     1  UNL1       -0.4563
     22 N         141.4653  141.0686  161.6643 N.am    1  UNL1       -0.3018
     23 C         140.5897  139.9188  162.0660 C.2     1  UNL1        0.2426
     24 O         139.2740  139.7023  161.3790 O.2     1  UNL1       -0.2733
     25 H         142.3289  141.2107  162.1152 H       1  UNL1        0.1495
     26 C         141.0298  138.9856  163.1548 C.3     1  UNL1        0.1759
     27 N         140.6506  139.2631  164.5793 N.am    1  UNL1       -0.2931
     28 C         141.3545  140.3434  165.3459 C.2     1  UNL1        0.2462
     29 O         142.4376  141.1459  164.6880 O.2     1  UNL1       -0.2701
     30 H         139.9397  138.7364  165.0110 H       1  UNL1        0.1502
     31 C         140.9752  140.6209  166.7704 C.ar    1  UNL1        0.0533
     32 C         139.7738  139.9529  167.3705 C.ar    1  UNL1        0.0045
     33 C         139.3945  140.2305  168.7949 C.ar    1  UNL1        0.0001
     34 C         140.2168  141.1762  169.6193 C.ar    1  UNL1        0.0039
     35 C         141.4183  141.8442  169.0193 C.ar    1  UNL1        0.0716
     36 C         141.7975  141.5666  167.5948 C.ar    1  UNL1        0.0084
     37 C         142.2406  142.7899  169.8437 C.3     1  UNL1        0.4186
     38 F         143.0628  143.7355  170.6680 F       1  UNL1       -0.1659
     39 F         141.1621  143.8262  169.7304 F       1  UNL1       -0.1659
     40 F         143.3191  141.7534  169.9568 F       1  UNL1       -0.1659
@<TRIPOS>BOND
     1    20    21    1
     2    21    13    1
     3    13    14   ar
     4    14    15   ar
     5    15    16   ar
     6    16     5    1
     7     5     6    1
     8     5     7    1
     9     7     8    1
    10     8     9    1
    11     9     1    1
    12     1     2    1
    13     2     3    1
    14     3    22    1
    15    22    23   am
    16    23    24    2
    17    23    26    1
    18    26    27    1
    19    27    28   am
    20    28    29    2
    21    28    31    1
    22    31    32   ar
    23    32    33   ar
    24    33    34   ar
    25    34    35   ar
    26    35    37    1
    27    37    38    1
    28    37    39    1
    29    37    40    1
    30    35    36   ar
    31     3     4    1
    32     9    10    1
    33    10    11    1
    34    16    17   ar
    35    17    18   ar
    36    18    19    1
    37    18    13   ar
    38    11     5    1
    39     4     1    1
    40    36    31   ar
    41     6    12    1
    42    22    25    1
    43    27    30    1
@<TRIPOS>MOLECULE
*****
 40 43 0 0 0
SMALL
GASTEIGER

@<TRIPOS>ATOM
      1 N         141.5944  139.8997  161.1203 N.3     1  UNL1       -0.2711
      2 C         141.2867  140.2179  159.6871 C.3     1  UNL1        0.0933
      3 C         141.0953  138.7573  159.4039 C.3     1  UNL1        0.1035
      4 C         141.4030  138.4391  160.8371 C.3     1  UNL1        0.0933
      5 C         142.6531  142.3235  164.7609 C.3     1  UNL1        0.1085
      6 O         143.5678  143.4387  165.1727 O.3     1  UNL1       -0.3826
      7 C         141.6085  141.2508  164.8518 C.3     1  UNL1        0.0326
      8 C         141.2556  140.4429  163.6382 C.3     1  UNL1        0.0187
      9 C         141.9473  140.7076  162.3338 C.3     1  UNL1        0.0578
     10 C         142.9919  141.7802  162.2429 C.3     1  UNL1        0.0187
     11 C         143.3448  142.5882  163.4565 C.3     1  UNL1        0.0326
     12 H         143.4351  143.6351  166.1133 H       1  UNL1        0.2107
     13 C         141.5312  142.6913  169.1032 C.ar    1  UNL1        0.2207
     14 N         140.4752  142.8027  168.0437 N.ar    1  UNL1       -0.2107
     15 C         140.8492  142.6801  166.5963 C.ar    1  UNL1        0.1000
     16 C         142.2791  142.4461  166.2083 C.ar    1  UNL1        0.0208
     17 C         143.3351  142.3347  167.2678 C.ar    1  UNL1       -0.0001
     18 C         142.9611  142.4573  168.7153 C.ar    1  UNL1        0.0311
     19 C         144.0171  142.3458  169.7748 C.3     1  UNL1        0.0359
     20 C         140.7601  141.5945  171.3286 C.3     1  UNL1        0.2542
     21 O         141.1572  142.8139  170.5507 O.3     1  UNL1       -0.4563
     22 N         140.7425  137.9494  158.1903 N.am    1  UNL1       -0.3018
     23 C         141.8076  137.5757  157.2024 C.2     1  UNL1        0.2426
     24 O         143.2255  138.0097  157.4282 O.2     1  UNL1       -0.2733
     25 H         139.8118  137.6646  158.0421 H       1  UNL1        0.1495
     26 C         141.4547  136.7678  155.9888 C.3     1  UNL1        0.1759
     27 N         141.5096  135.2698  156.0430 N.am    1  UNL1       -0.2931
     28 C         142.8231  134.5615  155.8910 C.2     1  UNL1        0.2462
     29 O         144.0815  135.3512  155.6848 O.2     1  UNL1       -0.2701
     30 H         140.6836  134.7515  156.1784 H       1  UNL1        0.1502
     31 C         142.8779  133.0635  155.9452 C.ar    1  UNL1        0.0533
     32 C         144.0522  132.3785  156.5790 C.ar    1  UNL1        0.0045
     33 C         144.1071  130.8804  156.6332 C.ar    1  UNL1        0.0001
     34 C         142.9876  130.0675  156.0536 C.ar    1  UNL1        0.0039
     35 C         141.8134  130.7525  155.4199 C.ar    1  UNL1        0.0716
     36 C         141.7585  132.2505  155.3656 C.ar    1  UNL1        0.0084
     37 C         140.6939  129.9395  154.8403 C.3     1  UNL1        0.4186
     38 F         139.5745  129.1266  154.2608 F       1  UNL1       -0.1659
     39 F         141.6273  128.7782  154.6665 F       1  UNL1       -0.1659
     40 F         139.7605  131.1008  155.0141 F       1  UNL1       -0.1659
@<TRIPOS>BOND
     1    20    21    1
     2    21    13    1
     3    13    14   ar
     4    14    15   ar
     5    15    16   ar
     6    16     5    1
     7     5     6    1
     8     5     7    1
     9     7     8    1
    10     8     9    1
    11     9     1    1
    12     1     2    1
    13     2     3    1
    14     3    22    1
    15    22    23   am
    16    23    24    2
    17    23    26    1
    18    26    27    1
    19    27    28   am
    20    28    29    2
    21    28    31    1
    22    31    32   ar
    23    32    33   ar
    24    33    34   ar
    25    34    35   ar
    26    35    37    1
    27    37    38    1
    28    37    39    1
    29    37    40    1
    30    35    36   ar
    31     3     4    1
    32     9    10    1
    33    10    11    1
    34    16    17   ar
    35    17    18   ar
    36    18    19    1
    37    18    13   ar
    38    11     5    1
    39     4     1    1
    40    36    31   ar
    41     6    12    1
    42    22    25    1
    43    27    30    1
@<TRIPOS>MOLECULE
*****
 40 43 0 0 0
SMALL
GASTEIGER

@<TRIPOS>ATOM
      1 N         143.0456  139.9236  159.5113 N.3     1  UNL1       -0.2711
      2 C         143.3101  141.3885  159.6962 C.3     1  UNL1        0.0933
      3 C         143.0403  141.2518  161.1654 C.3     1  UNL1        0.1035
      4 C         142.7758  139.7869  160.9805 C.3     1  UNL1        0.0933
      5 C         143.0570  137.1067  156.0021 C.3     1  UNL1        0.1085
      6 O         143.3331  137.1089  154.5277 O.3     1  UNL1       -0.3826
      7 C         142.6870  136.6041  157.3661 C.3     1  UNL1        0.0326
      8 C         142.6832  137.5431  158.5358 C.3     1  UNL1        0.0187
      9 C         143.0494  138.9846  158.3416 C.3     1  UNL1        0.0578
     10 C         143.4194  139.4873  156.9776 C.3     1  UNL1        0.0187
     11 C         143.4232  138.5483  155.8078 C.3     1  UNL1        0.0326
     12 H         143.1956  136.2171  154.1717 H       1  UNL1        0.2107
     13 C         142.2461  132.7843  155.0487 C.ar    1  UNL1        0.2207
     14 N         141.2146  133.8275  154.7363 N.ar    1  UNL1       -0.2107
     15 C         141.4849  135.2683  155.0541 C.ar    1  UNL1        0.1000
     16 C         142.7867  135.6659  155.6843 C.ar    1  UNL1        0.0208
     17 C         143.8182  134.6227  155.9966 C.ar    1  UNL1       -0.0001
     18 C         143.5479  133.1819  155.6789 C.ar    1  UNL1        0.0311
     19 C         144.5795  132.1386  155.9913 C.3     1  UNL1        0.0359
     20 C         140.8351  130.9756  153.8290 C.3     1  UNL1        0.2542
     21 O         141.9758  131.3435  154.7309 O.3     1  UNL1       -0.4563
     22 N         143.0365  142.1909  162.3351 N.am    1  UNL1       -0.3018
     23 C         144.3007  142.4355  163.1045 C.2     1  UNL1        0.2426
     24 O         145.5686  141.7411  162.7043 O.2     1  UNL1       -0.2733
     25 H         142.2044  142.6467  162.5977 H       1  UNL1        0.1495
     26 C         144.2970  143.3747  164.2742 C.3     1  UNL1        0.1759
     27 N         143.8041  142.9056  165.6110 N.am    1  UNL1       -0.2931
     28 C         142.3485  142.6026  165.8095 C.2     1  UNL1        0.2462
     29 O         141.3858  142.7688  164.6713 O.2     1  UNL1       -0.2701
     30 H         144.4360  142.7966  166.3580 H       1  UNL1        0.1502
     31 C         141.8556  142.1336  167.1463 C.ar    1  UNL1        0.0533
     32 C         140.8222  142.9301  167.8864 C.ar    1  UNL1        0.0045
     33 C         140.3294  142.4610  169.2232 C.ar    1  UNL1        0.0001
     34 C         140.8699  141.1954  169.8199 C.ar    1  UNL1        0.0039
     35 C         141.9033  140.3989  169.0799 C.ar    1  UNL1        0.0716
     36 C         142.3962  140.8680  167.7431 C.ar    1  UNL1        0.0084
     37 C         142.4439  139.1333  169.6766 C.3     1  UNL1        0.4186
     38 F         142.9844  137.8678  170.2733 F       1  UNL1       -0.1659
     39 F         142.0226  139.5962  171.0398 F       1  UNL1       -0.1659
     40 F         142.8652  138.6704  168.3134 F       1  UNL1       -0.1659
@<TRIPOS>BOND
     1    20    21    1
     2    21    13    1
     3    13    14   ar
     4    14    15   ar
     5    15    16   ar
     6    16     5    1
     7     5     6    1
     8     5     7    1
     9     7     8    1
    10     8     9    1
    11     9     1    1
    12     1     2    1
    13     2     3    1
    14     3    22    1
    15    22    23   am
    16    23    24    2
    17    23    26    1
    18    26    27    1
    19    27    28   am
    20    28    29    2
    21    28    31    1
    22    31    32   ar
    23    32    33   ar
    24    33    34   ar
    25    34    35   ar
    26    35    37    1
    27    37    38    1
    28    37    39    1
    29    37    40    1
    30    35    36   ar
    31     3     4    1
    32     9    10    1
    33    10    11    1
    34    16    17   ar
    35    17    18   ar
    36    18    19    1
    37    18    13   ar
    38    11     5    1
    39     4     1    1
    40    36    31   ar
    41     6    12    1
    42    22    25    1
    43    27    30    1
