@<TRIPOS>MOLECULE
*****
 40 46 0 0 0
SMALL
GASTEIGER

@<TRIPOS>ATOM
      1 C         137.7450  139.6217  161.9534 C.3     1  UNL1        0.0700
      2 C         138.4146  138.3304  162.3195 C.3     1  UNL1        0.0193
      3 C         139.0182  138.1584  163.6819 C.3     1  UNL1        0.0287
      4 C         138.9522  139.2779  164.6783 C.3     1  UNL1        0.0955
      5 C         138.2827  140.5693  164.3121 C.3     1  UNL1        0.0287
      6 C         137.6791  140.7411  162.9497 C.3     1  UNL1        0.0193
      7 O         138.6072  139.4189  163.9440 O.3     1  UNL1       -0.3571
      8 C         138.0615  139.5744  162.7122 C.3     1  UNL1        0.1562
      9 N         137.1415  139.7937  160.5910 N.3     1  UNL1       -0.2926
     10 H         136.8368  138.8696  160.2851 H       1  UNL1        0.1236
     11 C         137.9610  140.3709  159.4751 C.3     1  UNL1        0.1152
     12 O         141.6900  135.0731  155.1416 O.2     1  UNL1       -0.2707
     13 C         141.7212  136.1679  156.1667 C.2     1  UNL1        0.2718
     14 C         143.0265  136.5914  156.7721 C.3     1  UNL1        0.2898
     15 O         143.0578  137.6861  157.7971 O.3     1  UNL1       -0.4628
     16 C         141.7836  138.3573  158.2166 C.ar    1  UNL1        0.1708
     17 C         141.8147  139.4520  159.2416 C.ar    1  UNL1        0.0411
     18 C         140.5405  140.1232  159.6611 C.ar    1  UNL1        0.0193
     19 C         139.2352  139.6996  159.0556 C.ar    1  UNL1        0.0765
     20 N         139.2040  138.6049  158.0306 N.ar    1  UNL1       -0.2304
     21 C         140.4782  137.9337  157.6111 C.ar    1  UNL1        0.1682
     22 N         140.4470  136.8390  156.5862 N.am    1  UNL1       -0.2639
     23 H         139.5902  136.5611  156.1888 H       1  UNL1        0.1565
     24 C         139.5558  139.1059  166.0407 C.3     1  UNL1        0.0602
     25 C         140.6660  140.0097  166.4887 C.3     1  UNL1        0.1311
     26 O         141.2187  139.7495  165.1187 O.3     1  UNL1       -0.3808
     27 C         141.8917  140.8590  166.6503 C.3     1  UNL1        0.1293
     28 N         141.8644  141.4552  168.0265 N.am    1  UNL1       -0.2549
     29 C         142.8105  142.3738  168.7413 C.2     1  UNL1        0.2298
     30 O         144.0531  142.8548  168.0524 O.2     1  UNL1       -0.2745
     31 C         142.5140  142.8115  170.1450 C.3     1  UNL1        0.0919
     32 C         141.2713  142.3306  170.8339 C.3     1  UNL1        0.0567
     33 C         140.3252  141.4119  170.1191 C.ar    1  UNL1        0.0730
     34 N         139.0271  140.7825  170.5539 N.ar    1  UNL1       -0.2446
     35 C         138.1791  139.8715  169.7167 C.ar    1  UNL1        0.1278
     36 C         138.6061  139.5207  168.3222 C.ar    1  UNL1        0.1586
     37 F         137.7581  138.6097  167.4850 F       1  UNL1       -0.2027
     38 C         139.8811  140.0809  167.7650 C.ar    1  UNL1        0.0473
     39 C         140.6218  140.9742  168.7154 C.ar    1  UNL1        0.0679
     40 H         142.0539  140.2308  165.0103 H       1  UNL1        0.2107
@<TRIPOS>BOND
     1    12    13    2
     2    13    14    1
     3    14    15    1
     4    15    16    1
     5    16    17   ar
     6    17    18   ar
     7    18    19   ar
     8    19    11    1
     9    11     9    1
    10     9     1    1
    11     1     2    1
    12     2     3    1
    13     3     4    1
    14     4    24    1
    15    24    25    1
    16    25    26    1
    17    25    27    1
    18    27    28    1
    19    28    29   am
    20    29    30    2
    21    29    31    1
    22    31    32    1
    23    32    33    1
    24    33    34   ar
    25    34    35   ar
    26    35    36   ar
    27    36    37    1
    28    36    38   ar
    29    38    39   ar
    30     4     5    1
    31     5     6    1
    32     4     7    1
    33     7     8    1
    34    19    20   ar
    35    20    21   ar
    36    21    22    1
    37    22    13   am
    38    21    16   ar
    39     6     1    1
    40     8     1    1
    41    38    25    1
    42    39    28    1
    43    39    33   ar
    44     9    10    1
    45    26    40    1
    46    22    23    1
@<TRIPOS>MOLECULE
*****
 40 46 0 0 0
SMALL
GASTEIGER

@<TRIPOS>ATOM
      1 C         137.7538  139.5652  162.0463 C.3     1  UNL1        0.0700
      2 C         138.4529  138.2925  162.4222 C.3     1  UNL1        0.0193
      3 C         139.0599  138.1448  163.7859 C.3     1  UNL1        0.0287
      4 C         138.9678  139.2699  164.7738 C.3     1  UNL1        0.0955
      5 C         138.2687  140.5426  164.3979 C.3     1  UNL1        0.0287
      6 C         137.6617  140.6903  163.0341 C.3     1  UNL1        0.0193
      7 O         138.6199  139.3973  164.0385 O.3     1  UNL1       -0.3571
      8 C         138.0710  139.5309  162.8054 C.3     1  UNL1        0.1562
      9 N         137.1468  139.7129  160.6825 N.3     1  UNL1       -0.2926
     10 H         136.8207  138.7876  160.4036 H       1  UNL1        0.1236
     11 C         137.9727  140.2415  159.5474 C.3     1  UNL1        0.1152
     12 O         143.8264  144.6296  162.2360 O.2     1  UNL1       -0.2707
     13 C         143.3453  143.3988  161.5262 C.2     1  UNL1        0.2718
     14 C         144.3345  142.4000  161.0030 C.3     1  UNL1        0.2898
     15 O         143.8535  141.1691  160.2933 O.3     1  UNL1       -0.4628
     16 C         142.3833  140.9372  160.1068 C.ar    1  UNL1        0.1708
     17 C         141.9022  139.7064  159.3971 C.ar    1  UNL1        0.0411
     18 C         140.4320  139.4745  159.2106 C.ar    1  UNL1        0.0193
     19 C         139.4429  140.4734  159.7339 C.ar    1  UNL1        0.0765
     20 N         139.9239  141.7042  160.4436 N.ar    1  UNL1       -0.2304
     21 C         141.3941  141.9361  160.6301 C.ar    1  UNL1        0.1682
     22 N         141.8751  143.1669  161.3398 N.am    1  UNL1       -0.2639
     23 H         141.2259  143.8225  161.6832 H       1  UNL1        0.1565
     24 C         139.5748  139.1222  166.1375 C.3     1  UNL1        0.0602
     25 C         140.6991  140.0210  166.5594 C.3     1  UNL1        0.1311
     26 O         141.2448  139.7168  165.1958 O.3     1  UNL1       -0.3808
     27 C         141.9374  140.8563  166.6963 C.3     1  UNL1        0.1293
     28 N         141.9220  141.4888  168.0563 N.am    1  UNL1       -0.2549
     29 C         142.8830  142.4120  168.7449 C.2     1  UNL1        0.2298
     30 O         144.1310  142.8564  168.0411 O.2     1  UNL1       -0.2745
     31 C         142.5961  142.8908  170.1371 C.3     1  UNL1        0.0919
     32 C         141.3482  142.4464  170.8408 C.3     1  UNL1        0.0567
     33 C         140.3872  141.5233  170.1523 C.ar    1  UNL1        0.0730
     34 N         139.0810  140.9246  170.6060 N.ar    1  UNL1       -0.2446
     35 C         138.2178  140.0044  169.7947 C.ar    1  UNL1        0.1278
     36 C         138.6365  139.6108  168.4092 C.ar    1  UNL1        0.1586
     37 F         137.7733  138.6906  167.5979 F       1  UNL1       -0.2027
     38 C         139.9183  140.1373  167.8349 C.ar    1  UNL1        0.0473
     39 C         140.6741  141.0445  168.7600 C.ar    1  UNL1        0.0679
     40 H         142.0867  140.1828  165.0731 H       1  UNL1        0.2107
@<TRIPOS>BOND
     1    12    13    2
     2    13    14    1
     3    14    15    1
     4    15    16    1
     5    16    17   ar
     6    17    18   ar
     7    18    19   ar
     8    19    11    1
     9    11     9    1
    10     9     1    1
    11     1     2    1
    12     2     3    1
    13     3     4    1
    14     4    24    1
    15    24    25    1
    16    25    26    1
    17    25    27    1
    18    27    28    1
    19    28    29   am
    20    29    30    2
    21    29    31    1
    22    31    32    1
    23    32    33    1
    24    33    34   ar
    25    34    35   ar
    26    35    36   ar
    27    36    37    1
    28    36    38   ar
    29    38    39   ar
    30     4     5    1
    31     5     6    1
    32     4     7    1
    33     7     8    1
    34    19    20   ar
    35    20    21   ar
    36    21    22    1
    37    22    13   am
    38    21    16   ar
    39     6     1    1
    40     8     1    1
    41    38    25    1
    42    39    28    1
    43    39    33   ar
    44     9    10    1
    45    26    40    1
    46    22    23    1
@<TRIPOS>MOLECULE
*****
 40 46 0 0 0
SMALL
GASTEIGER

@<TRIPOS>ATOM
      1 C         142.5265  138.5241  159.6567 C.3     1  UNL1        0.0700
      2 C         141.7441  139.8038  159.6659 C.3     1  UNL1        0.0193
      3 C         141.0220  140.2325  160.9088 C.3     1  UNL1        0.0287
      4 C         141.0822  139.3813  162.1425 C.3     1  UNL1        0.0955
      5 C         141.8646  138.1015  162.1333 C.3     1  UNL1        0.0287
      6 C         142.5867  137.6729  160.8903 C.3     1  UNL1        0.0193
      7 O         141.4942  139.1051  161.4853 O.3     1  UNL1       -0.3571
      8 C         142.1472  138.7175  160.3615 C.3     1  UNL1        0.1562
      9 N         143.2487  138.0955  158.4138 N.3     1  UNL1       -0.2926
     10 H         143.8346  138.8800  158.1282 H       1  UNL1        0.1236
     11 C         142.4711  137.6725  157.2028 C.3     1  UNL1        0.1152
     12 O         144.8682  130.3216  158.1873 O.2     1  UNL1       -0.2707
     13 C         144.0074  131.3231  157.4757 C.2     1  UNL1        0.2718
     14 C         143.0850  130.8756  156.3808 C.3     1  UNL1        0.2898
     15 O         142.2242  131.8770  155.6692 O.3     1  UNL1       -0.4628
     16 C         142.2859  133.3259  156.0526 C.ar    1  UNL1        0.1708
     17 C         141.4252  134.3273  155.3411 C.ar    1  UNL1        0.0411
     18 C         141.4870  135.7762  155.7245 C.ar    1  UNL1        0.0193
     19 C         142.4094  136.2236  156.8195 C.ar    1  UNL1        0.0765
     20 N         143.2701  135.2221  157.5310 N.ar    1  UNL1       -0.2304
     21 C         143.2084  133.7733  157.1476 C.ar    1  UNL1        0.1682
     22 N         144.0691  132.7719  157.8591 N.am    1  UNL1       -0.2639
     23 H         144.6746  133.0656  158.5778 H       1  UNL1        0.1565
     24 C         140.3601  139.8099  163.3854 C.3     1  UNL1        0.0602
     25 C         141.1091  140.4960  164.4892 C.3     1  UNL1        0.1311
     26 O         142.0194  140.9397  163.3826 O.3     1  UNL1       -0.3808
     27 C         142.0484  141.2748  165.3616 C.3     1  UNL1        0.1293
     28 N         141.5621  141.1691  166.7766 N.am    1  UNL1       -0.2549
     29 C         142.0881  141.7324  168.0635 C.2     1  UNL1        0.2298
     30 O         143.3279  142.5766  168.0613 O.2     1  UNL1       -0.2745
     31 C         141.3742  141.4515  169.3524 C.3     1  UNL1        0.0919
     32 C         140.1343  140.6073  169.3545 C.3     1  UNL1        0.0567
     33 C         139.6083  140.0439  168.0677 C.ar    1  UNL1        0.0730
     34 N         138.4092  139.1802  167.7738 N.ar    1  UNL1       -0.2446
     35 C         138.0040  138.6879  166.4161 C.ar    1  UNL1        0.1278
     36 C         138.8205  139.0522  165.2117 C.ar    1  UNL1        0.1586
     37 F         138.4154  138.5598  163.8540 F       1  UNL1       -0.2027
     38 C         140.0423  139.9089  165.3651 C.ar    1  UNL1        0.0473
     39 C         140.3222  140.3248  166.7788 C.ar    1  UNL1        0.0679
     40 H         142.7331  141.4844  163.7498 H       1  UNL1        0.2107
@<TRIPOS>BOND
     1    12    13    2
     2    13    14    1
     3    14    15    1
     4    15    16    1
     5    16    17   ar
     6    17    18   ar
     7    18    19   ar
     8    19    11    1
     9    11     9    1
    10     9     1    1
    11     1     2    1
    12     2     3    1
    13     3     4    1
    14     4    24    1
    15    24    25    1
    16    25    26    1
    17    25    27    1
    18    27    28    1
    19    28    29   am
    20    29    30    2
    21    29    31    1
    22    31    32    1
    23    32    33    1
    24    33    34   ar
    25    34    35   ar
    26    35    36   ar
    27    36    37    1
    28    36    38   ar
    29    38    39   ar
    30     4     5    1
    31     5     6    1
    32     4     7    1
    33     7     8    1
    34    19    20   ar
    35    20    21   ar
    36    21    22    1
    37    22    13   am
    38    21    16   ar
    39     6     1    1
    40     8     1    1
    41    38    25    1
    42    39    28    1
    43    39    33   ar
    44     9    10    1
    45    26    40    1
    46    22    23    1
@<TRIPOS>MOLECULE
*****
 40 46 0 0 0
SMALL
GASTEIGER

@<TRIPOS>ATOM
      1 C         139.8188  137.5334  164.2846 C.3     1  UNL1        0.0700
      2 C         139.3953  137.7789  162.8667 C.3     1  UNL1        0.0193
      3 C         140.4190  138.1305  161.8283 C.3     1  UNL1        0.0287
      4 C         141.8664  138.2366  162.2077 C.3     1  UNL1        0.0955
      5 C         142.2900  137.9911  163.6256 C.3     1  UNL1        0.0287
      6 C         141.2662  137.6395  164.6640 C.3     1  UNL1        0.0193
      7 O         141.3418  138.0413  162.8116 O.3     1  UNL1       -0.3571
      8 C         140.4162  137.7233  163.7505 C.3     1  UNL1        0.1562
      9 N         138.7951  137.1818  165.3230 N.3     1  UNL1       -0.2926
     10 H         138.0238  136.7274  164.8341 H       1  UNL1        0.1236
     11 C         138.1927  138.2579  166.1767 C.3     1  UNL1        0.1152
     12 O         137.8314  145.0448  162.3610 O.2     1  UNL1       -0.2707
     13 C         138.3955  144.2060  163.4694 C.2     1  UNL1        0.2718
     14 C         139.4033  144.7907  164.4140 C.3     1  UNL1        0.2898
     15 O         139.9674  143.9520  165.5223 O.3     1  UNL1       -0.4628
     16 C         139.5237  142.5285  165.6859 C.ar    1  UNL1        0.1708
     17 C         140.0878  141.6898  166.7942 C.ar    1  UNL1        0.0411
     18 C         139.6441  140.2662  166.9578 C.ar    1  UNL1        0.0193
     19 C         138.6364  139.6815  166.0131 C.ar    1  UNL1        0.0765
     20 N         138.0723  140.5202  164.9048 N.ar    1  UNL1       -0.2304
     21 C         138.5160  141.9438  164.7412 C.ar    1  UNL1        0.1682
     22 N         137.9518  142.7824  163.6330 N.am    1  UNL1       -0.2639
     23 H         137.2904  142.3986  163.0129 H       1  UNL1        0.1565
     24 C         142.8901  138.5882  161.1693 C.3     1  UNL1        0.0602
     25 C         142.9142  139.9657  160.5761 C.3     1  UNL1        0.1311
     26 O         142.9563  140.4109  162.0079 O.3     1  UNL1       -0.3808
     27 C         142.9471  141.4363  160.2822 C.3     1  UNL1        0.1293
     28 N         142.9203  141.6120  158.7927 N.am    1  UNL1       -0.2549
     29 C         142.9346  142.8363  157.9262 C.2     1  UNL1        0.2298
     30 O         142.9840  144.1982  158.5528 O.2     1  UNL1       -0.2745
     31 C         142.8994  142.6985  156.4329 C.3     1  UNL1        0.0919
     32 C         142.8499  141.3366  155.8063 C.3     1  UNL1        0.0567
     33 C         142.8357  140.1124  156.6729 C.ar    1  UNL1        0.0730
     34 N         142.7894  138.6465  156.3271 N.ar    1  UNL1       -0.2446
     35 C         142.7804  137.5195  157.3169 C.ar    1  UNL1        0.1278
     36 C         142.8192  137.8126  158.7875 C.ar    1  UNL1        0.1586
     37 F         142.8102  136.6855  159.7773 F       1  UNL1       -0.2027
     38 C         142.8671  139.2326  159.2683 C.ar    1  UNL1        0.0473
     39 C         142.8709  140.2501  158.1661 C.ar    1  UNL1        0.0679
     40 H         142.9829  141.3798  162.0446 H       1  UNL1        0.2107
@<TRIPOS>BOND
     1    12    13    2
     2    13    14    1
     3    14    15    1
     4    15    16    1
     5    16    17   ar
     6    17    18   ar
     7    18    19   ar
     8    19    11    1
     9    11     9    1
    10     9     1    1
    11     1     2    1
    12     2     3    1
    13     3     4    1
    14     4    24    1
    15    24    25    1
    16    25    26    1
    17    25    27    1
    18    27    28    1
    19    28    29   am
    20    29    30    2
    21    29    31    1
    22    31    32    1
    23    32    33    1
    24    33    34   ar
    25    34    35   ar
    26    35    36   ar
    27    36    37    1
    28    36    38   ar
    29    38    39   ar
    30     4     5    1
    31     5     6    1
    32     4     7    1
    33     7     8    1
    34    19    20   ar
    35    20    21   ar
    36    21    22    1
    37    22    13   am
    38    21    16   ar
    39     6     1    1
    40     8     1    1
    41    38    25    1
    42    39    28    1
    43    39    33   ar
    44     9    10    1
    45    26    40    1
    46    22    23    1
@<TRIPOS>MOLECULE
*****
 40 46 0 0 0
SMALL
GASTEIGER

@<TRIPOS>ATOM
      1 C         144.4394  140.4081  157.5701 C.3     1  UNL1        0.0700
      2 C         143.6798  139.9448  158.7777 C.3     1  UNL1        0.0193
      3 C         143.4520  140.8827  159.9259 C.3     1  UNL1        0.0287
      4 C         143.9838  142.2841  159.8665 C.3     1  UNL1        0.0955
      5 C         144.7434  142.7475  158.6588 C.3     1  UNL1        0.0287
      6 C         144.9711  141.8094  157.5107 C.3     1  UNL1        0.0193
      7 O         144.1337  141.8064  159.2128 O.3     1  UNL1       -0.3571
      8 C         144.3397  140.9583  158.1746 C.3     1  UNL1        0.1562
      9 N         144.6672  139.4702  156.4219 N.3     1  UNL1       -0.2926
     10 H         145.3350  139.9242  155.7988 H       1  UNL1        0.1236
     11 C         143.5119  139.0304  155.5722 C.3     1  UNL1        0.1152
     12 O         144.9921  131.4634  156.7129 O.2     1  UNL1       -0.2707
     13 C         144.0253  132.5635  156.3883 C.2     1  UNL1        0.2718
     14 C         142.5853  132.2413  156.1193 C.3     1  UNL1        0.2898
     15 O         141.6185  133.3413  155.7946 O.3     1  UNL1       -0.4628
     16 C         142.0919  134.7636  155.7390 C.ar    1  UNL1        0.1708
     17 C         141.1252  135.8636  155.4144 C.ar    1  UNL1        0.0411
     18 C         141.5986  137.2859  155.3588 C.ar    1  UNL1        0.0193
     19 C         143.0386  137.6081  155.6279 C.ar    1  UNL1        0.0765
     20 N         144.0053  136.5080  155.9525 N.ar    1  UNL1       -0.2304
     21 C         143.5319  135.0858  156.0081 C.ar    1  UNL1        0.1682
     22 N         144.4987  133.9858  156.3327 N.am    1  UNL1       -0.2639
     23 H         145.4438  134.1973  156.5092 H       1  UNL1        0.1565
     24 C         143.7560  143.2221  161.0147 C.3     1  UNL1        0.0602
     25 C         142.3757  143.7339  161.3026 C.3     1  UNL1        0.1311
     26 O         142.3905  144.1284  159.8555 O.3     1  UNL1       -0.3808
     27 C         140.9985  144.3281  161.2880 C.3     1  UNL1        0.1293
     28 N         140.4211  144.1939  162.6659 N.am    1  UNL1       -0.2549
     29 C         139.0981  144.6008  163.2437 C.2     1  UNL1        0.2298
     30 O         138.0777  145.2780  162.3775 O.2     1  UNL1       -0.2745
     31 C         138.7954  144.3305  164.6878 C.3     1  UNL1        0.0919
     32 C         139.8157  143.6533  165.5539 C.3     1  UNL1        0.0567
     33 C         141.1388  143.2464  164.9761 C.ar    1  UNL1        0.0730
     34 N         142.3303  142.5639  165.5966 N.ar    1  UNL1       -0.2446
     35 C         143.6028  142.2164  164.8825 C.ar    1  UNL1        0.1278
     36 C         143.7624  142.5506  163.4289 C.ar    1  UNL1        0.1586
     37 F         145.0348  142.2031  162.7148 F       1  UNL1       -0.2027
     38 C         142.6495  143.2324  162.6895 C.ar    1  UNL1        0.0473
     39 C         141.4415  143.5167  163.5321 C.ar    1  UNL1        0.0679
     40 H         141.5485  144.5524  159.6273 H       1  UNL1        0.2107
@<TRIPOS>BOND
     1    12    13    2
     2    13    14    1
     3    14    15    1
     4    15    16    1
     5    16    17   ar
     6    17    18   ar
     7    18    19   ar
     8    19    11    1
     9    11     9    1
    10     9     1    1
    11     1     2    1
    12     2     3    1
    13     3     4    1
    14     4    24    1
    15    24    25    1
    16    25    26    1
    17    25    27    1
    18    27    28    1
    19    28    29   am
    20    29    30    2
    21    29    31    1
    22    31    32    1
    23    32    33    1
    24    33    34   ar
    25    34    35   ar
    26    35    36   ar
    27    36    37    1
    28    36    38   ar
    29    38    39   ar
    30     4     5    1
    31     5     6    1
    32     4     7    1
    33     7     8    1
    34    19    20   ar
    35    20    21   ar
    36    21    22    1
    37    22    13   am
    38    21    16   ar
    39     6     1    1
    40     8     1    1
    41    38    25    1
    42    39    28    1
    43    39    33   ar
    44     9    10    1
    45    26    40    1
    46    22    23    1
@<TRIPOS>MOLECULE
*****
 40 46 0 0 0
SMALL
GASTEIGER

@<TRIPOS>ATOM
      1 C         138.6002  141.3500  163.8259 C.3     1  UNL1        0.0700
      2 C         139.1452  142.5573  164.5297 C.3     1  UNL1        0.0193
      3 C         140.0228  143.5237  163.7909 C.3     1  UNL1        0.0287
      4 C         140.3555  143.2827  162.3481 C.3     1  UNL1        0.0955
      5 C         139.8105  142.0754  161.6443 C.3     1  UNL1        0.0287
      6 C         138.9328  141.1090  162.3833 C.3     1  UNL1        0.0193
      7 O         139.8705  142.7251  162.7113 O.3     1  UNL1       -0.3571
      8 C         139.0769  141.8514  163.3794 C.3     1  UNL1        0.1562
      9 N         137.7225  140.3837  164.5648 N.3     1  UNL1       -0.2926
     10 H         137.1611  140.9336  165.2151 H       1  UNL1        0.1236
     11 C         138.3365  139.2688  165.3585 C.3     1  UNL1        0.1152
     12 O         140.6885  142.1304  172.2164 O.2     1  UNL1       -0.2707
     13 C         141.0043  141.4689  170.9077 C.2     1  UNL1        0.2718
     14 C         142.4198  141.0998  170.5763 C.3     1  UNL1        0.2898
     15 O         142.7357  140.4383  169.2675 O.3     1  UNL1       -0.4628
     16 C         141.6359  140.1459  168.2903 C.ar    1  UNL1        0.1708
     17 C         141.9517  139.4845  166.9816 C.ar    1  UNL1        0.0411
     18 C         140.8519  139.1921  166.0044 C.ar    1  UNL1        0.0193
     19 C         139.4363  139.5612  166.3358 C.ar    1  UNL1        0.0765
     20 N         139.1205  140.2227  167.6445 N.ar    1  UNL1       -0.2304
     21 C         140.2203  140.5151  168.6218 C.ar    1  UNL1        0.1682
     22 N         139.9045  141.1765  169.9304 N.am    1  UNL1       -0.2639
     23 H         138.9754  141.4188  170.1480 H       1  UNL1        0.1565
     24 C         141.2331  144.2490  161.6093 C.3     1  UNL1        0.0602
     25 C         140.7222  144.9352  160.3772 C.3     1  UNL1        0.1311
     26 O         139.7104  145.5236  161.3153 O.3     1  UNL1       -0.3808
     27 C         139.9998  145.7443  159.3411 C.3     1  UNL1        0.1293
     28 N         140.6719  145.5126  158.0203 N.am    1  UNL1       -0.2549
     29 C         140.3948  146.0458  156.6459 C.2     1  UNL1        0.2298
     30 O         139.2570  146.9982  156.4262 O.2     1  UNL1       -0.2745
     31 C         141.2556  145.6265  155.4913 C.3     1  UNL1        0.0919
     32 C         142.3934  144.6741  155.7110 C.3     1  UNL1        0.0567
     33 C         142.6705  144.1409  157.0853 C.ar    1  UNL1        0.0730
     34 N         143.7237  143.1901  157.5923 N.ar    1  UNL1       -0.2446
     35 C         143.8786  142.7426  159.0156 C.ar    1  UNL1        0.1278
     36 C         142.9372  143.2493  160.0678 C.ar    1  UNL1        0.1586
     37 F         143.0921  142.8018  161.4910 F       1  UNL1       -0.2027
     38 C         141.8408  144.2033  159.6966 C.ar    1  UNL1        0.0473
     39 C         141.8097  144.5602  158.2400 C.ar    1  UNL1        0.0679
     40 H         139.1143  146.1088  160.8222 H       1  UNL1        0.2107
@<TRIPOS>BOND
     1    12    13    2
     2    13    14    1
     3    14    15    1
     4    15    16    1
     5    16    17   ar
     6    17    18   ar
     7    18    19   ar
     8    19    11    1
     9    11     9    1
    10     9     1    1
    11     1     2    1
    12     2     3    1
    13     3     4    1
    14     4    24    1
    15    24    25    1
    16    25    26    1
    17    25    27    1
    18    27    28    1
    19    28    29   am
    20    29    30    2
    21    29    31    1
    22    31    32    1
    23    32    33    1
    24    33    34   ar
    25    34    35   ar
    26    35    36   ar
    27    36    37    1
    28    36    38   ar
    29    38    39   ar
    30     4     5    1
    31     5     6    1
    32     4     7    1
    33     7     8    1
    34    19    20   ar
    35    20    21   ar
    36    21    22    1
    37    22    13   am
    38    21    16   ar
    39     6     1    1
    40     8     1    1
    41    38    25    1
    42    39    28    1
    43    39    33   ar
    44     9    10    1
    45    26    40    1
    46    22    23    1
@<TRIPOS>MOLECULE
*****
 40 46 0 0 0
SMALL
GASTEIGER

@<TRIPOS>ATOM
      1 C         142.0871  143.5928  161.3563 C.3     1  UNL1        0.0700
      2 C         143.1964  142.5862  161.4341 C.3     1  UNL1        0.0193
      3 C         143.3367  141.7171  162.6486 C.3     1  UNL1        0.0287
      4 C         142.3676  141.8546  163.7854 C.3     1  UNL1        0.0955
      5 C         141.2583  142.8613  163.7075 C.3     1  UNL1        0.0287
      6 C         141.1180  143.7303  162.4930 C.3     1  UNL1        0.0193
      7 O         142.2504  142.3530  163.1405 O.3     1  UNL1       -0.3571
      8 C         142.1235  143.1388  162.0424 C.3     1  UNL1        0.1562
      9 N         141.9467  144.4619  160.1418 N.3     1  UNL1       -0.2926
     10 H         141.4224  145.2880  160.4298 H       1  UNL1        0.1236
     11 C         141.2736  143.9288  158.9119 C.3     1  UNL1        0.1152
     12 O         137.8993  150.2240  155.7917 O.2     1  UNL1       -0.2707
     13 C         138.7909  149.0255  155.6546 C.2     1  UNL1        0.2718
     14 C         139.4493  148.7270  154.3403 C.3     1  UNL1        0.2898
     15 O         140.3409  147.5285  154.2031 O.3     1  UNL1       -0.4628
     16 C         140.5741  146.6286  155.3803 C.ar    1  UNL1        0.1708
     17 C         141.4657  145.4302  155.2432 C.ar    1  UNL1        0.0411
     18 C         141.6988  144.5302  156.4204 C.ar    1  UNL1        0.0193
     19 C         141.0404  144.8288  157.7347 C.ar    1  UNL1        0.0765
     20 N         140.1488  146.0272  157.8718 N.ar    1  UNL1       -0.2304
     21 C         139.9157  146.9271  156.6946 C.ar    1  UNL1        0.1682
     22 N         139.0241  148.1255  156.8318 N.am    1  UNL1       -0.2639
     23 H         138.5920  148.3215  157.6944 H       1  UNL1        0.1565
     24 C         142.5079  140.9856  164.9999 C.3     1  UNL1        0.0602
     25 C         142.5836  141.6077  166.3627 C.3     1  UNL1        0.1311
     26 O         143.8039  142.2850  165.8132 O.3     1  UNL1       -0.3808
     27 C         142.9143  142.3714  167.6106 C.3     1  UNL1        0.1293
     28 N         141.8825  142.0361  168.6465 N.am    1  UNL1       -0.2549
     29 C         141.6997  142.4895  170.0645 C.2     1  UNL1        0.2298
     30 O         142.6681  143.4605  170.6723 O.2     1  UNL1       -0.2745
     31 C         140.5485  141.9718  170.8749 C.3     1  UNL1        0.0919
     32 C         139.5801  141.0008  170.2672 C.3     1  UNL1        0.0567
     33 C         139.7629  140.5475  168.8491 C.ar    1  UNL1        0.0730
     34 N         138.9627  139.5988  167.9946 N.ar    1  UNL1       -0.2446
     35 C         139.2725  139.2377  166.5721 C.ar    1  UNL1        0.1278
     36 C         140.4648  139.8385  165.8884 C.ar    1  UNL1        0.1586
     37 F         140.7745  139.4775  164.4658 F       1  UNL1       -0.2027
     38 C         141.3474  140.8004  166.6273 C.ar    1  UNL1        0.0473
     39 C         140.9141  141.0651  168.0387 C.ar    1  UNL1        0.0679
     40 H         144.1915  142.8558  166.4950 H       1  UNL1        0.2107
@<TRIPOS>BOND
     1    12    13    2
     2    13    14    1
     3    14    15    1
     4    15    16    1
     5    16    17   ar
     6    17    18   ar
     7    18    19   ar
     8    19    11    1
     9    11     9    1
    10     9     1    1
    11     1     2    1
    12     2     3    1
    13     3     4    1
    14     4    24    1
    15    24    25    1
    16    25    26    1
    17    25    27    1
    18    27    28    1
    19    28    29   am
    20    29    30    2
    21    29    31    1
    22    31    32    1
    23    32    33    1
    24    33    34   ar
    25    34    35   ar
    26    35    36   ar
    27    36    37    1
    28    36    38   ar
    29    38    39   ar
    30     4     5    1
    31     5     6    1
    32     4     7    1
    33     7     8    1
    34    19    20   ar
    35    20    21   ar
    36    21    22    1
    37    22    13   am
    38    21    16   ar
    39     6     1    1
    40     8     1    1
    41    38    25    1
    42    39    28    1
    43    39    33   ar
    44     9    10    1
    45    26    40    1
    46    22    23    1
@<TRIPOS>MOLECULE
*****
 40 46 0 0 0
SMALL
GASTEIGER

@<TRIPOS>ATOM
      1 C         142.7239  137.8225  158.4470 C.3     1  UNL1        0.0700
      2 C         141.8272  139.0241  158.4927 C.3     1  UNL1        0.0193
      3 C         141.3276  139.5374  159.8107 C.3     1  UNL1        0.0287
      4 C         141.7247  138.8491  161.0829 C.3     1  UNL1        0.0955
      5 C         142.6214  137.6475  161.0372 C.3     1  UNL1        0.0287
      6 C         143.1210  137.1342  159.7192 C.3     1  UNL1        0.0193
      7 O         142.0235  138.5312  160.3847 O.3     1  UNL1       -0.3571
      8 C         142.4753  138.0670  159.1930 C.3     1  UNL1        0.1562
      9 N         143.2235  137.3092  157.1291 N.3     1  UNL1       -0.2926
     10 H         143.5911  138.1131  156.6202 H       1  UNL1        0.1236
     11 C         142.2872  136.5983  156.1975 C.3     1  UNL1        0.1152
     12 O         145.0393  129.7367  158.6662 O.2     1  UNL1       -0.2707
     13 C         144.1201  130.5252  157.7810 C.2     1  UNL1        0.2718
     14 C         143.1993  129.8150  156.8336 C.3     1  UNL1        0.2898
     15 O         142.2802  130.6035  155.9484 O.3     1  UNL1       -0.4628
     16 C         142.2819  132.1022  156.0107 C.ar    1  UNL1        0.1708
     17 C         141.3629  132.8907  155.1255 C.ar    1  UNL1        0.0411
     18 C         141.3646  134.3894  155.1878 C.ar    1  UNL1        0.0193
     19 C         142.2855  135.0996  156.1353 C.ar    1  UNL1        0.0765
     20 N         143.2045  134.3111  157.0204 N.ar    1  UNL1       -0.2304
     21 C         143.2028  132.8124  156.9581 C.ar    1  UNL1        0.1682
     22 N         144.1219  132.0239  157.8433 N.am    1  UNL1       -0.2639
     23 H         144.7262  132.4901  158.4651 H       1  UNL1        0.1565
     24 C         141.2251  139.3624  162.4009 C.3     1  UNL1        0.0602
     25 C         141.4695  140.7899  162.7912 C.3     1  UNL1        0.1311
     26 O         142.9158  140.4059  162.6875 O.3     1  UNL1       -0.3808
     27 C         142.0163  142.1372  163.1598 C.3     1  UNL1        0.1293
     28 N         140.8568  143.0555  163.4097 N.am    1  UNL1       -0.2549
     29 C         140.7882  144.5009  163.8046 C.2     1  UNL1        0.2298
     30 O         142.0516  145.2806  164.0188 O.2     1  UNL1       -0.2745
     31 C         139.4563  145.1666  163.9854 C.3     1  UNL1        0.0919
     32 C         138.1929  144.3868  163.7712 C.3     1  UNL1        0.0567
     33 C         138.2615  142.9414  163.3763 C.ar    1  UNL1        0.0730
     34 N         137.1785  141.9310  163.0992 N.ar    1  UNL1       -0.2446
     35 C         137.4034  140.5004  162.7085 C.ar    1  UNL1        0.1278
     36 C         138.8002  139.9726  162.5655 C.ar    1  UNL1        0.1586
     37 F         139.0251  138.5420  162.1748 F       1  UNL1       -0.2027
     38 C         139.9721  140.8755  162.8133 C.ar    1  UNL1        0.0473
     39 C         139.5935  142.2757  163.1955 C.ar    1  UNL1        0.0679
     40 H         143.4701  141.1736  162.8978 H       1  UNL1        0.2107
@<TRIPOS>BOND
     1    12    13    2
     2    13    14    1
     3    14    15    1
     4    15    16    1
     5    16    17   ar
     6    17    18   ar
     7    18    19   ar
     8    19    11    1
     9    11     9    1
    10     9     1    1
    11     1     2    1
    12     2     3    1
    13     3     4    1
    14     4    24    1
    15    24    25    1
    16    25    26    1
    17    25    27    1
    18    27    28    1
    19    28    29   am
    20    29    30    2
    21    29    31    1
    22    31    32    1
    23    32    33    1
    24    33    34   ar
    25    34    35   ar
    26    35    36   ar
    27    36    37    1
    28    36    38   ar
    29    38    39   ar
    30     4     5    1
    31     5     6    1
    32     4     7    1
    33     7     8    1
    34    19    20   ar
    35    20    21   ar
    36    21    22    1
    37    22    13   am
    38    21    16   ar
    39     6     1    1
    40     8     1    1
    41    38    25    1
    42    39    28    1
    43    39    33   ar
    44     9    10    1
    45    26    40    1
    46    22    23    1
@<TRIPOS>MOLECULE
*****
 40 46 0 0 0
SMALL
GASTEIGER

@<TRIPOS>ATOM
      1 C         144.4769  142.7243  161.7401 C.3     1  UNL1        0.0700
      2 C         143.5155  143.6363  162.4428 C.3     1  UNL1        0.0193
      3 C         142.3486  144.2137  161.6980 C.3     1  UNL1        0.0287
      4 C         142.1430  143.8790  160.2502 C.3     1  UNL1        0.0955
      5 C         143.1044  142.9670  159.5474 C.3     1  UNL1        0.0287
      6 C         144.2714  142.3896  160.2924 C.3     1  UNL1        0.0193
      7 O         142.7970  143.5385  160.6166 O.3     1  UNL1       -0.3571
      8 C         143.8522  143.0164  161.2901 C.3     1  UNL1        0.1562
      9 N         145.6439  142.1469  162.4849 N.3     1  UNL1       -0.2926
     10 H         146.3292  141.8635  161.7846 H       1  UNL1        0.1236
     11 C         145.4449  140.9723  163.3963 C.3     1  UNL1        0.1152
     12 O         138.2827  138.6543  165.4164 O.2     1  UNL1       -0.2707
     13 C         139.4960  138.5148  164.5453 C.2     1  UNL1        0.2718
     14 C         139.5349  137.4630  163.4767 C.3     1  UNL1        0.2898
     15 O         140.7481  137.3234  162.6055 O.3     1  UNL1       -0.4628
     16 C         141.9223  138.2356  162.8032 C.ar    1  UNL1        0.1708
     17 C         143.1354  138.0961  161.9322 C.ar    1  UNL1        0.0411
     18 C         144.3096  139.0083  162.1299 C.ar    1  UNL1        0.0193
     19 C         144.2707  140.0601  163.1987 C.ar    1  UNL1        0.0765
     20 N         143.0575  140.1996  164.0697 N.ar    1  UNL1       -0.2304
     21 C         141.8833  139.2874  163.8720 C.ar    1  UNL1        0.1682
     22 N         140.6702  139.4270  164.7431 N.am    1  UNL1       -0.2639
     23 H         140.6446  140.1173  165.4445 H       1  UNL1        0.1565
     24 C         140.9760  144.4564  159.5053 C.3     1  UNL1        0.0602
     25 C         139.8993  143.5529  158.9815 C.3     1  UNL1        0.1311
     26 O         139.9949  142.9143  160.3354 O.3     1  UNL1       -0.3808
     27 C         138.8426  142.5159  158.7406 C.3     1  UNL1        0.1293
     28 N         138.3191  142.7025  157.3474 N.am    1  UNL1       -0.2549
     29 C         137.2695  141.9720  156.5634 C.2     1  UNL1        0.2298
     30 O         136.5363  140.8197  157.1836 O.2     1  UNL1       -0.2745
     31 C         136.9530  142.3938  155.1592 C.3     1  UNL1        0.0919
     32 C         137.6862  143.5461  154.5389 C.3     1  UNL1        0.0567
     33 C         138.7358  144.2766  155.3229 C.ar    1  UNL1        0.0730
     34 N         139.6146  145.4466  154.9637 N.ar    1  UNL1       -0.2446
     35 C         140.6333  146.0781  155.8656 C.ar    1  UNL1        0.1278
     36 C         140.8404  145.5450  157.2523 C.ar    1  UNL1        0.1586
     37 F         141.8591  146.1765  158.1542 F       1  UNL1       -0.2027
     38 C         140.0289  144.3803  157.7371 C.ar    1  UNL1        0.0473
     39 C         139.0522  143.8548  156.7272 C.ar    1  UNL1        0.0679
     40 H         139.3615  142.1818  160.3928 H       1  UNL1        0.2107
@<TRIPOS>BOND
     1    12    13    2
     2    13    14    1
     3    14    15    1
     4    15    16    1
     5    16    17   ar
     6    17    18   ar
     7    18    19   ar
     8    19    11    1
     9    11     9    1
    10     9     1    1
    11     1     2    1
    12     2     3    1
    13     3     4    1
    14     4    24    1
    15    24    25    1
    16    25    26    1
    17    25    27    1
    18    27    28    1
    19    28    29   am
    20    29    30    2
    21    29    31    1
    22    31    32    1
    23    32    33    1
    24    33    34   ar
    25    34    35   ar
    26    35    36   ar
    27    36    37    1
    28    36    38   ar
    29    38    39   ar
    30     4     5    1
    31     5     6    1
    32     4     7    1
    33     7     8    1
    34    19    20   ar
    35    20    21   ar
    36    21    22    1
    37    22    13   am
    38    21    16   ar
    39     6     1    1
    40     8     1    1
    41    38    25    1
    42    39    28    1
    43    39    33   ar
    44     9    10    1
    45    26    40    1
    46    22    23    1
