@<TRIPOS>MOLECULE
*****
 40 44 0 0 0
SMALL
GASTEIGER

@<TRIPOS>ATOM
      1 C         141.0074  140.1820  165.2914 C.3     1  UNL1        0.0776
      2 C         142.6367  139.5888  163.3566 C.ar    1  UNL1        0.2211
      3 N         142.9929  139.6282  161.9000 N.ar    1  UNL1       -0.2119
      4 C         142.0757  140.3001  160.9216 C.ar    1  UNL1        0.0843
      5 C         142.4318  140.3395  159.4650 C.ar    1  UNL1        0.0190
      6 C         141.5146  141.0115  158.4866 C.ar    1  UNL1       -0.0003
      7 C         140.2414  141.6440  158.9648 C.ar    1  UNL1        0.0070
      8 C         139.8852  141.6046  160.4213 C.ar    1  UNL1       -0.0004
      9 C         140.8024  140.9327  161.3997 C.ar    1  UNL1        0.0174
     10 C         140.4463  140.8933  162.8564 C.ar    1  UNL1        0.0022
     11 C         141.3635  140.2214  163.8347 C.ar    1  UNL1        0.0373
     12 C         139.3242  142.3160  157.9863 C.3     1  UNL1        0.1636
     13 O         138.0361  142.9215  158.4597 O.3     1  UNL1       -0.3772
     14 H         137.4471  142.2200  158.7789 H       1  UNL1        0.2109
     15 C         144.9790  139.3681  164.4589 C.3     1  UNL1        0.2542
     16 O         143.5539  138.9168  164.3351 O.3     1  UNL1       -0.4563
     17 C         139.8807  139.3122  165.7647 C.ar    1  UNL1       -0.0157
     18 C         139.5838  138.0208  165.0619 C.ar    1  UNL1       -0.0039
     19 C         138.4572  137.1510  165.5352 C.ar    1  UNL1       -0.0003
     20 C         137.6273  137.5726  166.7115 C.ar    1  UNL1       -0.0000
     21 C         137.9242  138.8641  167.4144 C.ar    1  UNL1       -0.0003
     22 C         139.0508  139.7339  166.9411 C.ar    1  UNL1       -0.0039
     23 C         141.7779  141.0123  166.2746 C.3     1  UNL1        0.1158
     24 O         142.3518  139.7649  166.8783 O.3     1  UNL1       -0.3820
     25 H         142.5688  139.9268  167.8098 H       1  UNL1        0.2107
     26 C         141.2040  142.2597  165.6708 C.ar    1  UNL1        0.0024
     27 C         139.7651  142.6130  165.9051 C.ar    1  UNL1       -0.0020
     28 C         139.1912  143.8604  165.3013 C.ar    1  UNL1       -0.0002
     29 C         140.0562  144.7546  164.4633 C.ar    1  UNL1       -0.0000
     30 C         141.4950  144.4014  164.2290 C.ar    1  UNL1       -0.0002
     31 C         142.3600  145.2956  163.3910 C.ar    1  UNL1       -0.0000
     32 C         143.7989  144.9423  163.1568 C.ar    1  UNL1       -0.0000
     33 C         144.3728  143.6949  163.7605 C.ar    1  UNL1       -0.0000
     34 C         143.5078  142.8007  164.5985 C.ar    1  UNL1       -0.0002
     35 C         142.0690  143.1539  164.8328 C.ar    1  UNL1       -0.0018
     36 C         142.5485  141.8427  167.2577 C.3     1  UNL1        0.0491
     37 C         142.6066  141.4356  168.7003 C.3     1  UNL1        0.0750
     38 N         141.3380  141.1842  169.4603 N.3     1  UNL1       -0.2702
     39 C         141.1053  139.8533  170.1118 C.3     1  UNL1        0.0897
     40 C         140.3023  142.2637  169.5689 C.3     1  UNL1        0.0897
@<TRIPOS>BOND
     1    15    16    1
     2    16     2    1
     3     2     3   ar
     4     3     4   ar
     5     4     5   ar
     6     5     6   ar
     7     6     7   ar
     8     7    12    1
     9    12    13    1
    10     7     8   ar
    11     8     9   ar
    12     9    10   ar
    13    10    11   ar
    14    11     1    1
    15     1    17    1
    16    17    18   ar
    17    18    19   ar
    18    19    20   ar
    19    20    21   ar
    20    21    22   ar
    21     1    23    1
    22    23    24    1
    23    23    36    1
    24    36    37    1
    25    37    38    1
    26    38    39    1
    27    38    40    1
    28    23    26    1
    29    26    27   ar
    30    27    28   ar
    31    28    29   ar
    32    29    30   ar
    33    30    31   ar
    34    31    32   ar
    35    32    33   ar
    36    33    34   ar
    37    34    35   ar
    38    11     2   ar
    39    22    17   ar
    40    35    26   ar
    41     9     4   ar
    42    35    30   ar
    43    13    14    1
    44    24    25    1
@<TRIPOS>MOLECULE
*****
 40 44 0 0 0
SMALL
GASTEIGER

@<TRIPOS>ATOM
      1 C         139.5939  140.7695  164.6842 C.3     1  UNL1        0.0776
      2 C         139.0644  139.9103  167.0782 C.ar    1  UNL1        0.2211
      3 N         139.3708  139.8840  168.5463 N.ar    1  UNL1       -0.2119
      4 C         140.5133  140.6907  169.0886 C.ar    1  UNL1        0.0843
      5 C         140.8197  140.6644  170.5567 C.ar    1  UNL1        0.0190
      6 C         141.9621  141.4710  171.0990 C.ar    1  UNL1       -0.0003
      7 C         142.7981  142.3040  170.1731 C.ar    1  UNL1        0.0070
      8 C         142.4917  142.3303  168.7050 C.ar    1  UNL1       -0.0004
      9 C         141.3493  141.5236  168.1628 C.ar    1  UNL1        0.0174
     10 C         141.0428  141.5499  166.6946 C.ar    1  UNL1        0.0022
     11 C         139.9004  140.7433  166.1523 C.ar    1  UNL1        0.0373
     12 C         143.9406  143.1107  170.7154 C.3     1  UNL1        0.1636
     13 O         143.6720  144.3822  171.4645 O.3     1  UNL1       -0.3772
     14 H         143.2830  145.0359  170.8627 H       1  UNL1        0.2109
     15 C         137.3499  137.9762  167.3433 C.3     1  UNL1        0.2542
     16 O         137.9219  139.1036  166.5359 O.3     1  UNL1       -0.4563
     17 C         139.2965  142.0726  164.0033 C.ar    1  UNL1       -0.0157
     18 C         138.0219  142.2413  163.2308 C.ar    1  UNL1       -0.0039
     19 C         137.7244  143.5444  162.5499 C.ar    1  UNL1       -0.0003
     20 C         138.7016  144.6787  162.6416 C.ar    1  UNL1       -0.0000
     21 C         139.9763  144.5100  163.4142 C.ar    1  UNL1       -0.0003
     22 C         140.2737  143.2069  164.0950 C.ar    1  UNL1       -0.0039
     23 C         139.5849  139.4928  163.8969 C.3     1  UNL1        0.1158
     24 O         138.0952  139.5923  163.7526 O.3     1  UNL1       -0.3820
     25 H         137.7201  138.7034  163.6520 H       1  UNL1        0.2107
     26 C         141.0746  139.3933  164.0412 C.ar    1  UNL1        0.0024
     27 C         141.6677  138.6155  165.1785 C.ar    1  UNL1       -0.0020
     28 C         143.1574  138.5160  165.3228 C.ar    1  UNL1       -0.0002
     29 C         144.0541  139.1943  164.3299 C.ar    1  UNL1       -0.0000
     30 C         143.4611  139.9721  163.1926 C.ar    1  UNL1       -0.0002
     31 C         144.3577  140.6504  162.1997 C.ar    1  UNL1       -0.0000
     32 C         143.7646  141.4282  161.0624 C.ar    1  UNL1       -0.0000
     33 C         142.2749  141.5277  160.9181 C.ar    1  UNL1       -0.0000
     34 C         141.3783  140.8494  161.9111 C.ar    1  UNL1       -0.0002
     35 C         141.9713  140.0716  163.0483 C.ar    1  UNL1       -0.0018
     36 C         139.5759  138.2161  163.1097 C.3     1  UNL1        0.0491
     37 C         138.5548  138.0072  162.0310 C.3     1  UNL1        0.0750
     38 N         138.6629  138.7627  160.7395 N.3     1  UNL1       -0.2702
     39 C         139.7099  138.3838  159.7344 C.3     1  UNL1        0.0897
     40 C         137.7239  139.8968  160.4532 C.3     1  UNL1        0.0897
@<TRIPOS>BOND
     1    15    16    1
     2    16     2    1
     3     2     3   ar
     4     3     4   ar
     5     4     5   ar
     6     5     6   ar
     7     6     7   ar
     8     7    12    1
     9    12    13    1
    10     7     8   ar
    11     8     9   ar
    12     9    10   ar
    13    10    11   ar
    14    11     1    1
    15     1    17    1
    16    17    18   ar
    17    18    19   ar
    18    19    20   ar
    19    20    21   ar
    20    21    22   ar
    21     1    23    1
    22    23    24    1
    23    23    36    1
    24    36    37    1
    25    37    38    1
    26    38    39    1
    27    38    40    1
    28    23    26    1
    29    26    27   ar
    30    27    28   ar
    31    28    29   ar
    32    29    30   ar
    33    30    31   ar
    34    31    32   ar
    35    32    33   ar
    36    33    34   ar
    37    34    35   ar
    38    11     2   ar
    39    22    17   ar
    40    35    26   ar
    41     9     4   ar
    42    35    30   ar
    43    13    14    1
    44    24    25    1
@<TRIPOS>MOLECULE
*****
 40 44 0 0 0
SMALL
GASTEIGER

@<TRIPOS>ATOM
      1 C         140.2924  140.7570  165.4407 C.3     1  UNL1        0.0776
      2 C         139.5125  142.5063  163.6851 C.ar    1  UNL1        0.2211
      3 N         139.5103  143.0206  162.2761 N.ar    1  UNL1       -0.2119
      4 C         140.2856  142.2998  161.2133 C.ar    1  UNL1        0.0843
      5 C         140.2834  142.8141  159.8043 C.ar    1  UNL1        0.0190
      6 C         141.0587  142.0933  158.7416 C.ar    1  UNL1       -0.0003
      7 C         141.8363  140.8582  159.0880 C.ar    1  UNL1        0.0070
      8 C         141.8385  140.3440  160.4971 C.ar    1  UNL1       -0.0004
      9 C         141.0632  141.0648  161.5597 C.ar    1  UNL1        0.0174
     10 C         141.0654  140.5505  162.9689 C.ar    1  UNL1        0.0022
     11 C         140.2901  141.2713  164.0315 C.ar    1  UNL1        0.0373
     12 C         142.6116  140.1374  158.0253 C.3     1  UNL1        0.1636
     13 O         143.9825  139.6081  158.3258 O.3     1  UNL1       -0.3772
     14 H         144.5859  140.3491  158.4925 H       1  UNL1        0.2109
     15 C         138.7688  144.7254  164.8133 C.3     1  UNL1        0.2542
     16 O         138.7372  143.2271  164.7479 O.3     1  UNL1       -0.4563
     17 C         139.4199  139.5962  165.8168 C.ar    1  UNL1       -0.0157
     18 C         139.4562  138.3363  165.0036 C.ar    1  UNL1       -0.0039
     19 C         138.5838  137.1755  165.3797 C.ar    1  UNL1       -0.0003
     20 C         137.6751  137.2746  166.5690 C.ar    1  UNL1       -0.0000
     21 C         137.6388  138.5346  167.3822 C.ar    1  UNL1       -0.0003
     22 C         138.5112  139.6954  167.0061 C.ar    1  UNL1       -0.0039
     23 C         141.1670  141.4035  166.4736 C.3     1  UNL1        0.1158
     24 O         140.0129  142.2512  166.9202 O.3     1  UNL1       -0.3820
     25 H         140.3473  143.0802  167.2967 H       1  UNL1        0.2107
     26 C         142.3210  140.5559  166.0270 C.ar    1  UNL1        0.0024
     27 C         142.4270  139.1315  166.4853 C.ar    1  UNL1       -0.0020
     28 C         143.5811  138.2838  166.0387 C.ar    1  UNL1       -0.0002
     29 C         144.6292  138.8604  165.1338 C.ar    1  UNL1       -0.0000
     30 C         144.5233  140.2847  164.6755 C.ar    1  UNL1       -0.0002
     31 C         145.5715  140.8614  163.7705 C.ar    1  UNL1       -0.0000
     32 C         145.4655  142.2858  163.3122 C.ar    1  UNL1       -0.0000
     33 C         144.3114  143.1334  163.7589 C.ar    1  UNL1       -0.0000
     34 C         143.2633  142.5568  164.6638 C.ar    1  UNL1       -0.0002
     35 C         143.3692  141.1325  165.1221 C.ar    1  UNL1       -0.0018
     36 C         142.0416  142.0501  167.5065 C.3     1  UNL1        0.0491
     37 C         141.5222  142.2729  168.8960 C.3     1  UNL1        0.0750
     38 N         141.1283  141.1016  169.7463 N.3     1  UNL1       -0.2702
     39 C         139.7148  140.9675  170.2300 C.3     1  UNL1        0.0897
     40 C         142.1480  140.0644  170.1129 C.3     1  UNL1        0.0897
@<TRIPOS>BOND
     1    15    16    1
     2    16     2    1
     3     2     3   ar
     4     3     4   ar
     5     4     5   ar
     6     5     6   ar
     7     6     7   ar
     8     7    12    1
     9    12    13    1
    10     7     8   ar
    11     8     9   ar
    12     9    10   ar
    13    10    11   ar
    14    11     1    1
    15     1    17    1
    16    17    18   ar
    17    18    19   ar
    18    19    20   ar
    19    20    21   ar
    20    21    22   ar
    21     1    23    1
    22    23    24    1
    23    23    36    1
    24    36    37    1
    25    37    38    1
    26    38    39    1
    27    38    40    1
    28    23    26    1
    29    26    27   ar
    30    27    28   ar
    31    28    29   ar
    32    29    30   ar
    33    30    31   ar
    34    31    32   ar
    35    32    33   ar
    36    33    34   ar
    37    34    35   ar
    38    11     2   ar
    39    22    17   ar
    40    35    26   ar
    41     9     4   ar
    42    35    30   ar
    43    13    14    1
    44    24    25    1
@<TRIPOS>MOLECULE
*****
 40 44 0 0 0
SMALL
GASTEIGER

@<TRIPOS>ATOM
      1 C         141.5986  141.9999  164.2482 C.3     1  UNL1        0.0776
      2 C         143.5302  142.9639  162.8025 C.ar    1  UNL1        0.2211
      3 N         144.3042  142.9875  161.5179 N.ar    1  UNL1       -0.2119
      4 C         143.9207  142.0708  160.3942 C.ar    1  UNL1        0.0843
      5 C         144.6947  142.0945  159.1095 C.ar    1  UNL1        0.0190
      6 C         144.3112  141.1778  157.9859 C.ar    1  UNL1       -0.0003
      7 C         143.1537  140.2375  158.1469 C.ar    1  UNL1        0.0070
      8 C         142.3797  140.2138  159.4316 C.ar    1  UNL1       -0.0004
      9 C         142.7632  141.1305  160.5552 C.ar    1  UNL1        0.0174
     10 C         141.9891  141.1069  161.8399 C.ar    1  UNL1        0.0022
     11 C         142.3727  142.0236  162.9635 C.ar    1  UNL1        0.0373
     12 C         142.7702  139.3207  157.0232 C.3     1  UNL1        0.1636
     13 O         143.7081  138.2339  156.5886 O.3     1  UNL1       -0.3772
     14 H         144.5082  138.6299  156.2092 H       1  UNL1        0.2109
     15 C         143.4782  145.3159  163.9051 C.3     1  UNL1        0.2542
     16 O         143.9137  143.8806  163.9262 O.3     1  UNL1       -0.4563
     17 C         140.2359  142.6232  164.3143 C.ar    1  UNL1       -0.0157
     18 C         139.1056  142.0413  163.5182 C.ar    1  UNL1       -0.0039
     19 C         137.7428  142.6645  163.5843 C.ar    1  UNL1       -0.0003
     20 C         137.5103  143.8697  164.4465 C.ar    1  UNL1       -0.0000
     21 C         138.6405  144.4516  165.2427 C.ar    1  UNL1       -0.0003
     22 C         140.0033  143.8284  165.1766 C.ar    1  UNL1       -0.0039
     23 C         142.1874  141.3531  165.4668 C.3     1  UNL1        0.1158
     24 O         142.6089  142.6990  165.9775 O.3     1  UNL1       -0.3820
     25 H         143.3875  142.5992  166.5474 H       1  UNL1        0.2107
     26 C         141.7659  140.0072  164.9560 C.ar    1  UNL1        0.0024
     27 C         142.6255  139.2776  163.9666 C.ar    1  UNL1       -0.0020
     28 C         142.2040  137.9317  163.4559 C.ar    1  UNL1       -0.0002
     29 C         140.9229  137.3154  163.9345 C.ar    1  UNL1       -0.0000
     30 C         140.0634  138.0450  164.9238 C.ar    1  UNL1       -0.0002
     31 C         138.7823  137.4287  165.4024 C.ar    1  UNL1       -0.0000
     32 C         137.9227  138.1583  166.3918 C.ar    1  UNL1       -0.0000
     33 C         138.3443  139.5042  166.9026 C.ar    1  UNL1       -0.0000
     34 C         139.6253  140.1205  166.4240 C.ar    1  UNL1       -0.0002
     35 C         140.4849  139.3909  165.4346 C.ar    1  UNL1       -0.0018
     36 C         142.7762  140.7063  166.6853 C.3     1  UNL1        0.0491
     37 C         142.8458  141.4647  167.9776 C.3     1  UNL1        0.0750
     38 N         141.6439  141.5332  168.8726 N.3     1  UNL1       -0.2702
     39 C         141.3009  140.3719  169.7578 C.3     1  UNL1        0.0897
     40 C         140.7852  142.7630  168.8824 C.3     1  UNL1        0.0897
@<TRIPOS>BOND
     1    15    16    1
     2    16     2    1
     3     2     3   ar
     4     3     4   ar
     5     4     5   ar
     6     5     6   ar
     7     6     7   ar
     8     7    12    1
     9    12    13    1
    10     7     8   ar
    11     8     9   ar
    12     9    10   ar
    13    10    11   ar
    14    11     1    1
    15     1    17    1
    16    17    18   ar
    17    18    19   ar
    18    19    20   ar
    19    20    21   ar
    20    21    22   ar
    21     1    23    1
    22    23    24    1
    23    23    36    1
    24    36    37    1
    25    37    38    1
    26    38    39    1
    27    38    40    1
    28    23    26    1
    29    26    27   ar
    30    27    28   ar
    31    28    29   ar
    32    29    30   ar
    33    30    31   ar
    34    31    32   ar
    35    32    33   ar
    36    33    34   ar
    37    34    35   ar
    38    11     2   ar
    39    22    17   ar
    40    35    26   ar
    41     9     4   ar
    42    35    30   ar
    43    13    14    1
    44    24    25    1
@<TRIPOS>MOLECULE
*****
 40 44 0 0 0
SMALL
GASTEIGER

@<TRIPOS>ATOM
      1 C         141.2885  141.6831  163.7274 C.3     1  UNL1        0.0776
      2 C         142.6070  140.1320  165.3417 C.ar    1  UNL1        0.2211
      3 N         142.9385  139.6889  166.7359 N.ar    1  UNL1       -0.2119
      4 C         142.2831  140.3536  167.9100 C.ar    1  UNL1        0.0843
      5 C         142.6146  139.9105  169.3042 C.ar    1  UNL1        0.0190
      6 C         141.9591  140.5752  170.4782 C.ar    1  UNL1       -0.0003
      7 C         140.9722  141.6831  170.2581 C.ar    1  UNL1        0.0070
      8 C         140.6406  142.1263  168.8640 C.ar    1  UNL1       -0.0004
      9 C         141.2961  141.4615  167.6899 C.ar    1  UNL1        0.0174
     10 C         140.9646  141.9047  166.2957 C.ar    1  UNL1        0.0022
     11 C         141.6200  141.2399  165.1217 C.ar    1  UNL1        0.0373
     12 C         140.3167  142.3479  171.4323 C.3     1  UNL1        0.1636
     13 O         139.2704  143.3996  171.2109 O.3     1  UNL1       -0.3772
     14 H         139.6748  144.1746  170.7905 H       1  UNL1        0.2109
     15 C         144.7542  139.5125  164.0166 C.3     1  UNL1        0.2542
     16 O         143.2625  139.4673  164.1676 O.3     1  UNL1       -0.4563
     17 C         142.3818  142.1291  162.8024 C.ar    1  UNL1       -0.0157
     18 C         143.4289  143.0880  163.2861 C.ar    1  UNL1       -0.0039
     19 C         144.5222  143.5340  162.3610 C.ar    1  UNL1       -0.0003
     20 C         144.5683  143.0212  160.9522 C.ar    1  UNL1       -0.0000
     21 C         143.5212  142.0623  160.4684 C.ar    1  UNL1       -0.0003
     22 C         142.4279  141.6163  161.3934 C.ar    1  UNL1       -0.0039
     23 C         139.8638  141.6801  163.2583 C.3     1  UNL1        0.1158
     24 O         139.8606  143.1801  163.2585 O.3     1  UNL1       -0.3820
     25 H         138.9572  143.5015  163.4051 H       1  UNL1        0.2107
     26 C         139.8669  140.1802  163.2582 C.ar    1  UNL1        0.0024
     27 C         140.5437  139.4317  162.1483 C.ar    1  UNL1       -0.0020
     28 C         140.5468  137.9317  162.1481 C.ar    1  UNL1       -0.0002
     29 C         139.8732  137.1801  163.2578 C.ar    1  UNL1       -0.0000
     30 C         139.1965  137.9286  164.3677 C.ar    1  UNL1       -0.0002
     31 C         138.5229  137.1770  165.4774 C.ar    1  UNL1       -0.0000
     32 C         137.8461  137.9255  166.5873 C.ar    1  UNL1       -0.0000
     33 C         137.8429  139.4255  166.5874 C.ar    1  UNL1       -0.0000
     34 C         138.5165  140.1770  165.4777 C.ar    1  UNL1       -0.0002
     35 C         139.1933  139.4286  164.3679 C.ar    1  UNL1       -0.0018
     36 C         138.4390  141.6772  162.7893 C.3     1  UNL1        0.0491
     37 C         138.0303  142.5328  161.6270 C.3     1  UNL1        0.0750
     38 N         138.7214  142.3811  160.3043 N.3     1  UNL1       -0.2702
     39 C         138.5226  141.1353  159.4928 C.3     1  UNL1        0.0897
     40 C         139.6113  143.4751  159.7932 C.3     1  UNL1        0.0897
@<TRIPOS>BOND
     1    15    16    1
     2    16     2    1
     3     2     3   ar
     4     3     4   ar
     5     4     5   ar
     6     5     6   ar
     7     6     7   ar
     8     7    12    1
     9    12    13    1
    10     7     8   ar
    11     8     9   ar
    12     9    10   ar
    13    10    11   ar
    14    11     1    1
    15     1    17    1
    16    17    18   ar
    17    18    19   ar
    18    19    20   ar
    19    20    21   ar
    20    21    22   ar
    21     1    23    1
    22    23    24    1
    23    23    36    1
    24    36    37    1
    25    37    38    1
    26    38    39    1
    27    38    40    1
    28    23    26    1
    29    26    27   ar
    30    27    28   ar
    31    28    29   ar
    32    29    30   ar
    33    30    31   ar
    34    31    32   ar
    35    32    33   ar
    36    33    34   ar
    37    34    35   ar
    38    11     2   ar
    39    22    17   ar
    40    35    26   ar
    41     9     4   ar
    42    35    30   ar
    43    13    14    1
    44    24    25    1
@<TRIPOS>MOLECULE
*****
 40 44 0 0 0
SMALL
GASTEIGER

@<TRIPOS>ATOM
      1 C         141.1130  140.8164  165.0007 C.3     1  UNL1        0.0776
      2 C         139.0096  139.7613  163.8995 C.ar    1  UNL1        0.2211
      3 N         138.1538  139.5318  162.6892 N.ar    1  UNL1       -0.2119
      4 C         138.5455  140.1280  161.3696 C.ar    1  UNL1        0.0843
      5 C         137.6897  139.8985  160.1593 C.ar    1  UNL1        0.0190
      6 C         138.0815  140.4946  158.8398 C.ar    1  UNL1       -0.0003
      7 C         139.3291  141.3202  158.7306 C.ar    1  UNL1        0.0070
      8 C         140.1849  141.5496  159.9409 C.ar    1  UNL1       -0.0004
      9 C         139.7931  140.9535  161.2604 C.ar    1  UNL1        0.0174
     10 C         140.6490  141.1830  162.4708 C.ar    1  UNL1        0.0022
     11 C         140.2572  140.5869  163.7903 C.ar    1  UNL1        0.0373
     12 C         139.7208  141.9163  157.4110 C.3     1  UNL1        0.1636
     13 O         139.6560  143.4013  157.2100 O.3     1  UNL1       -0.3772
     14 H         138.7319  143.6932  157.2521 H       1  UNL1        0.2109
     15 C         138.7550  137.6887  165.4453 C.3     1  UNL1        0.2542
     16 O         138.6178  139.1652  165.2191 O.3     1  UNL1       -0.4563
     17 C         142.3486  139.9926  165.2127 C.ar    1  UNL1       -0.0157
     18 C         142.4442  139.0746  166.3950 C.ar    1  UNL1       -0.0039
     19 C         143.6797  138.2509  166.6070 C.ar    1  UNL1       -0.0003
     20 C         144.8196  138.3452  165.6367 C.ar    1  UNL1       -0.0000
     21 C         144.7240  139.2633  164.4542 C.ar    1  UNL1       -0.0003
     22 C         143.4885  140.0870  164.2422 C.ar    1  UNL1       -0.0039
     23 C         140.7333  141.8695  165.9990 C.3     1  UNL1        0.1158
     24 O         140.0109  140.8373  166.8131 O.3     1  UNL1       -0.3820
     25 H         139.2961  141.2619  167.3128 H       1  UNL1        0.2107
     26 C         141.4557  142.9016  165.1849 C.ar    1  UNL1        0.0024
     27 C         142.9476  143.0237  165.2816 C.ar    1  UNL1       -0.0020
     28 C         143.6700  144.0559  164.4675 C.ar    1  UNL1       -0.0002
     29 C         142.9005  144.9660  163.5567 C.ar    1  UNL1       -0.0000
     30 C         141.4087  144.8440  163.4600 C.ar    1  UNL1       -0.0002
     31 C         140.6392  145.7541  162.5492 C.ar    1  UNL1       -0.0000
     32 C         139.1472  145.6321  162.4525 C.ar    1  UNL1       -0.0000
     33 C         138.4249  144.5999  163.2666 C.ar    1  UNL1       -0.0000
     34 C         139.1943  143.6898  164.1774 C.ar    1  UNL1       -0.0002
     35 C         140.6862  143.8118  164.2741 C.ar    1  UNL1       -0.0018
     36 C         140.3536  142.9226  166.9973 C.3     1  UNL1        0.0491
     37 C         140.4325  142.6272  168.4658 C.3     1  UNL1        0.0750
     38 N         141.6065  141.8736  169.0172 N.3     1  UNL1       -0.2702
     39 C         143.0001  142.3688  168.7671 C.3     1  UNL1        0.0897
     40 C         141.3867  140.6249  169.8187 C.3     1  UNL1        0.0897
@<TRIPOS>BOND
     1    15    16    1
     2    16     2    1
     3     2     3   ar
     4     3     4   ar
     5     4     5   ar
     6     5     6   ar
     7     6     7   ar
     8     7    12    1
     9    12    13    1
    10     7     8   ar
    11     8     9   ar
    12     9    10   ar
    13    10    11   ar
    14    11     1    1
    15     1    17    1
    16    17    18   ar
    17    18    19   ar
    18    19    20   ar
    19    20    21   ar
    20    21    22   ar
    21     1    23    1
    22    23    24    1
    23    23    36    1
    24    36    37    1
    25    37    38    1
    26    38    39    1
    27    38    40    1
    28    23    26    1
    29    26    27   ar
    30    27    28   ar
    31    28    29   ar
    32    29    30   ar
    33    30    31   ar
    34    31    32   ar
    35    32    33   ar
    36    33    34   ar
    37    34    35   ar
    38    11     2   ar
    39    22    17   ar
    40    35    26   ar
    41     9     4   ar
    42    35    30   ar
    43    13    14    1
    44    24    25    1
@<TRIPOS>MOLECULE
*****
 40 44 0 0 0
SMALL
GASTEIGER

@<TRIPOS>ATOM
      1 C         140.3653  140.3318  164.2241 C.3     1  UNL1        0.0776
      2 C         141.6535  139.5813  162.0963 C.ar    1  UNL1        0.2211
      3 N         141.7143  139.4097  160.6074 N.ar    1  UNL1       -0.2119
      4 C         140.5475  139.8171  159.7572 C.ar    1  UNL1        0.0843
      5 C         140.6083  139.6455  158.2684 C.ar    1  UNL1        0.0190
      6 C         139.4415  140.0528  157.4183 C.ar    1  UNL1       -0.0003
      7 C         138.2140  140.6317  158.0570 C.ar    1  UNL1        0.0070
      8 C         138.1532  140.8033  159.5459 C.ar    1  UNL1       -0.0004
      9 C         139.3200  140.3960  160.3960 C.ar    1  UNL1        0.0174
     10 C         139.2593  140.5676  161.8850 C.ar    1  UNL1        0.0022
     11 C         140.4260  140.1603  162.7351 C.ar    1  UNL1        0.0373
     12 C         137.0472  141.0390  157.2068 C.3     1  UNL1        0.1636
     13 O         136.8225  142.4869  156.8856 O.3     1  UNL1       -0.3772
     14 H         136.6066  142.9688  157.6993 H       1  UNL1        0.2109
     15 C         144.1859  139.7240  162.6591 C.3     1  UNL1        0.2542
     16 O         142.8203  139.1740  162.9465 O.3     1  UNL1       -0.4563
     17 C         139.5057  139.4210  165.0495 C.ar    1  UNL1       -0.0157
     18 C         138.9489  139.8974  166.3583 C.ar    1  UNL1       -0.0039
     19 C         138.0893  138.9865  167.1838 C.ar    1  UNL1       -0.0003
     20 C         137.7865  137.5992  166.7005 C.ar    1  UNL1       -0.0000
     21 C         138.3434  137.1227  165.3916 C.ar    1  UNL1       -0.0003
     22 C         139.2030  138.0336  164.5662 C.ar    1  UNL1       -0.0039
     23 C         141.1641  141.4143  164.8875 C.3     1  UNL1        0.1158
     24 O         142.1033  140.3830  165.4392 O.3     1  UNL1       -0.3820
     25 H         142.4979  140.7123  166.2618 H       1  UNL1        0.2107
     26 C         140.2249  142.4455  164.3358 C.ar    1  UNL1        0.0024
     27 C         138.8821  142.6534  164.9711 C.ar    1  UNL1       -0.0020
     28 C         137.9429  143.6847  164.4194 C.ar    1  UNL1       -0.0002
     29 C         138.3465  144.5081  163.2324 C.ar    1  UNL1       -0.0000
     30 C         139.6892  144.3002  162.5970 C.ar    1  UNL1       -0.0002
     31 C         140.0928  145.1236  161.4099 C.ar    1  UNL1       -0.0000
     32 C         141.4356  144.9157  160.7745 C.ar    1  UNL1       -0.0000
     33 C         142.3748  143.8844  161.3262 C.ar    1  UNL1       -0.0000
     34 C         141.9713  143.0611  162.5133 C.ar    1  UNL1       -0.0002
     35 C         140.6285  143.2689  163.1487 C.ar    1  UNL1       -0.0018
     36 C         141.9629  142.4967  165.5509 C.3     1  UNL1        0.0491
     37 C         142.5405  142.2725  166.9170 C.3     1  UNL1        0.0750
     38 N         141.6378  141.9377  168.0672 N.3     1  UNL1       -0.2702
     39 C         140.5531  142.8916  168.4718 C.3     1  UNL1        0.0897
     40 C         141.8196  140.6489  168.8129 C.3     1  UNL1        0.0897
@<TRIPOS>BOND
     1    15    16    1
     2    16     2    1
     3     2     3   ar
     4     3     4   ar
     5     4     5   ar
     6     5     6   ar
     7     6     7   ar
     8     7    12    1
     9    12    13    1
    10     7     8   ar
    11     8     9   ar
    12     9    10   ar
    13    10    11   ar
    14    11     1    1
    15     1    17    1
    16    17    18   ar
    17    18    19   ar
    18    19    20   ar
    19    20    21   ar
    20    21    22   ar
    21     1    23    1
    22    23    24    1
    23    23    36    1
    24    36    37    1
    25    37    38    1
    26    38    39    1
    27    38    40    1
    28    23    26    1
    29    26    27   ar
    30    27    28   ar
    31    28    29   ar
    32    29    30   ar
    33    30    31   ar
    34    31    32   ar
    35    32    33   ar
    36    33    34   ar
    37    34    35   ar
    38    11     2   ar
    39    22    17   ar
    40    35    26   ar
    41     9     4   ar
    42    35    30   ar
    43    13    14    1
    44    24    25    1
@<TRIPOS>MOLECULE
*****
 40 44 0 0 0
SMALL
GASTEIGER

@<TRIPOS>ATOM
      1 C         140.7376  141.9278  162.8540 C.3     1  UNL1        0.0776
      2 C         139.3394  140.6838  164.6561 C.ar    1  UNL1        0.2211
      3 N         139.0644  140.3655  166.0958 N.ar    1  UNL1       -0.2119
      4 C         139.9127  140.9730  167.1736 C.ar    1  UNL1        0.0843
      5 C         139.6377  140.6547  168.6133 C.ar    1  UNL1        0.0190
      6 C         140.4860  141.2622  169.6910 C.ar    1  UNL1       -0.0003
      7 C         141.6093  142.1879  169.3288 C.ar    1  UNL1        0.0070
      8 C         141.8843  142.5062  167.8890 C.ar    1  UNL1       -0.0004
      9 C         141.0360  141.8988  166.8114 C.ar    1  UNL1        0.0174
     10 C         141.3109  142.2170  165.3715 C.ar    1  UNL1        0.0022
     11 C         140.4626  141.6096  164.2939 C.ar    1  UNL1        0.0373
     12 C         142.4576  142.7954  170.4065 C.3     1  UNL1        0.1636
     13 O         142.2250  142.4263  171.8416 O.3     1  UNL1       -0.3772
     14 H         141.3533  142.7473  172.1208 H       1  UNL1        0.2109
     15 C         138.4779  138.5891  163.3831 C.3     1  UNL1        0.2542
     16 O         138.4910  140.0763  163.5783 O.3     1  UNL1       -0.4563
     17 C         140.4693  143.3060  162.3261 C.ar    1  UNL1       -0.0157
     18 C         141.1783  143.7890  161.0957 C.ar    1  UNL1       -0.0039
     19 C         140.9100  145.1671  160.5677 C.ar    1  UNL1       -0.0003
     20 C         139.9327  146.0623  161.2703 C.ar    1  UNL1       -0.0000
     21 C         139.2237  145.5793  162.5008 C.ar    1  UNL1       -0.0003
     22 C         139.4920  144.2012  163.0287 C.ar    1  UNL1       -0.0039
     23 C         141.2809  140.8680  161.9421 C.3     1  UNL1        0.1158
     24 O         139.9464  140.7667  161.2648 O.3     1  UNL1       -0.3820
     25 H         139.8355  139.8746  160.9006 H       1  UNL1        0.2107
     26 C         142.6154  140.9692  162.6195 C.ar    1  UNL1        0.0024
     27 C         143.5836  142.0404  162.2128 C.ar    1  UNL1       -0.0020
     28 C         144.9180  142.1416  162.8902 C.ar    1  UNL1       -0.0002
     29 C         145.2844  141.1718  163.9742 C.ar    1  UNL1       -0.0000
     30 C         144.3163  140.1007  164.3809 C.ar    1  UNL1       -0.0002
     31 C         144.6827  139.1308  165.4649 C.ar    1  UNL1       -0.0000
     32 C         143.7145  138.0597  165.8716 C.ar    1  UNL1       -0.0000
     33 C         142.3800  137.9584  165.1943 C.ar    1  UNL1       -0.0000
     34 C         142.0136  138.9283  164.1102 C.ar    1  UNL1       -0.0002
     35 C         142.9817  139.9994  163.7035 C.ar    1  UNL1       -0.0018
     36 C         141.8241  139.8081  161.0303 C.3     1  UNL1        0.0491
     37 C         141.9634  140.0814  159.5620 C.3     1  UNL1        0.0750
     38 N         140.8345  139.7583  158.6286 N.3     1  UNL1       -0.2702
     39 C         140.2381  138.3819  158.6210 C.3     1  UNL1        0.0897
     40 C         140.3019  140.8115  157.7028 C.3     1  UNL1        0.0897
@<TRIPOS>BOND
     1    15    16    1
     2    16     2    1
     3     2     3   ar
     4     3     4   ar
     5     4     5   ar
     6     5     6   ar
     7     6     7   ar
     8     7    12    1
     9    12    13    1
    10     7     8   ar
    11     8     9   ar
    12     9    10   ar
    13    10    11   ar
    14    11     1    1
    15     1    17    1
    16    17    18   ar
    17    18    19   ar
    18    19    20   ar
    19    20    21   ar
    20    21    22   ar
    21     1    23    1
    22    23    24    1
    23    23    36    1
    24    36    37    1
    25    37    38    1
    26    38    39    1
    27    38    40    1
    28    23    26    1
    29    26    27   ar
    30    27    28   ar
    31    28    29   ar
    32    29    30   ar
    33    30    31   ar
    34    31    32   ar
    35    32    33   ar
    36    33    34   ar
    37    34    35   ar
    38    11     2   ar
    39    22    17   ar
    40    35    26   ar
    41     9     4   ar
    42    35    30   ar
    43    13    14    1
    44    24    25    1
@<TRIPOS>MOLECULE
*****
 40 44 0 0 0
SMALL
GASTEIGER

@<TRIPOS>ATOM
      1 C         141.3760  142.0189  163.5629 C.3     1  UNL1        0.0776
      2 C         142.5175  143.6267  161.8711 C.ar    1  UNL1        0.2211
      3 N         143.1145  143.8785  160.5183 N.ar    1  UNL1       -0.2119
      4 C         143.1672  142.7742  159.5044 C.ar    1  UNL1        0.0843
      5 C         143.7643  143.0260  158.1516 C.ar    1  UNL1        0.0190
      6 C         143.8169  141.9218  157.1378 C.ar    1  UNL1       -0.0003
      7 C         143.2726  140.5658  157.4767 C.ar    1  UNL1        0.0070
      8 C         142.6755  140.3140  158.8295 C.ar    1  UNL1       -0.0004
      9 C         142.6228  141.4182  159.8433 C.ar    1  UNL1        0.0174
     10 C         142.0258  141.1664  161.1962 C.ar    1  UNL1        0.0022
     11 C         141.9731  142.2707  162.2100 C.ar    1  UNL1        0.0373
     12 C         143.3253  139.4616  156.4628 C.3     1  UNL1        0.1636
     13 O         144.6440  138.8602  156.0767 O.3     1  UNL1       -0.3772
     14 H         145.1816  139.5259  155.6197 H       1  UNL1        0.2109
     15 C         143.7183  145.1689  163.5827 C.3     1  UNL1        0.2542
     16 O         142.4648  144.7309  162.8850 O.3     1  UNL1       -0.4563
     17 C         140.0970  142.6968  163.9562 C.ar    1  UNL1       -0.0157
     18 C         140.0814  143.6600  165.1059 C.ar    1  UNL1       -0.0039
     19 C         138.8024  144.3378  165.4991 C.ar    1  UNL1       -0.0003
     20 C         137.5390  144.0525  164.7426 C.ar    1  UNL1       -0.0000
     21 C         137.5545  143.0893  163.5928 C.ar    1  UNL1       -0.0003
     22 C         138.8335  142.4114  163.1996 C.ar    1  UNL1       -0.0039
     23 C         142.0579  141.0893  164.5225 C.3     1  UNL1        0.1158
     24 O         143.1541  142.0945  164.7173 O.3     1  UNL1       -0.3820
     25 H         143.9740  141.6360  164.9592 H       1  UNL1        0.2107
     26 C         140.9618  140.0841  164.3276 C.ar    1  UNL1        0.0024
     27 C         140.8002  139.3976  163.0037 C.ar    1  UNL1       -0.0020
     28 C         139.7041  138.3924  162.8089 C.ar    1  UNL1       -0.0002
     29 C         138.7695  138.0736  163.9379 C.ar    1  UNL1       -0.0000
     30 C         138.9309  138.7600  165.2618 C.ar    1  UNL1       -0.0002
     31 C         137.9963  138.4412  166.3909 C.ar    1  UNL1       -0.0000
     32 C         138.1578  139.1277  167.7149 C.ar    1  UNL1       -0.0000
     33 C         139.2540  140.1329  167.9097 C.ar    1  UNL1       -0.0000
     34 C         140.1886  140.4517  166.7806 C.ar    1  UNL1       -0.0002
     35 C         140.0271  139.7653  165.4567 C.ar    1  UNL1       -0.0018
     36 C         142.7399  140.1597  165.4820 C.3     1  UNL1        0.0491
     37 C         144.0112  139.4706  165.0833 C.3     1  UNL1        0.0750
     38 N         144.6159  139.7332  163.7360 N.3     1  UNL1       -0.2702
     39 C         144.2710  138.8496  162.5740 C.3     1  UNL1        0.0897
     40 C         145.5656  140.8794  163.5507 C.3     1  UNL1        0.0897
@<TRIPOS>BOND
     1    15    16    1
     2    16     2    1
     3     2     3   ar
     4     3     4   ar
     5     4     5   ar
     6     5     6   ar
     7     6     7   ar
     8     7    12    1
     9    12    13    1
    10     7     8   ar
    11     8     9   ar
    12     9    10   ar
    13    10    11   ar
    14    11     1    1
    15     1    17    1
    16    17    18   ar
    17    18    19   ar
    18    19    20   ar
    19    20    21   ar
    20    21    22   ar
    21     1    23    1
    22    23    24    1
    23    23    36    1
    24    36    37    1
    25    37    38    1
    26    38    39    1
    27    38    40    1
    28    23    26    1
    29    26    27   ar
    30    27    28   ar
    31    28    29   ar
    32    29    30   ar
    33    30    31   ar
    34    31    32   ar
    35    32    33   ar
    36    33    34   ar
    37    34    35   ar
    38    11     2   ar
    39    22    17   ar
    40    35    26   ar
    41     9     4   ar
    42    35    30   ar
    43    13    14    1
    44    24    25    1
