@<TRIPOS>MOLECULE
*****
 46 51 0 0 0
SMALL
GASTEIGER

@<TRIPOS>ATOM
      1 C         141.8920  143.9465  160.8217 C.2     1  UNL1        0.1689
      2 C         140.7575  142.9676  160.7542 C.2     1  UNL1        0.0150
      3 C         140.7411  141.7746  161.6633 C.3     1  UNL1        0.0444
      4 C         139.6065  140.7957  161.5957 C.3     1  UNL1        0.0663
      5 C         139.5901  139.6027  162.5049 C.3     1  UNL1        0.0422
      6 C         140.7083  139.3887  163.4817 C.ar    1  UNL1       -0.0221
      7 C         140.6919  138.1958  164.3908 C.ar    1  UNL1        0.0203
      8 C         141.8100  137.9817  165.3675 C.ar    1  UNL1        0.0390
      9 C         142.9445  138.9606  165.4351 C.ar    1  UNL1        0.1725
     10 C         142.9609  140.1536  164.5259 C.ar    1  UNL1        0.1780
     11 C         141.8428  140.3676  163.5492 C.ar    1  UNL1        0.0116
     12 C         141.8592  141.5606  162.6400 C.3     1  UNL1        0.0354
     13 C         141.3461  142.2967  161.6993 C.3     1  UNL1        0.0223
     14 C         140.7498  142.4109  161.1784 C.3     1  UNL1        0.0725
     15 N         140.1447  141.8888  161.1424 N.3     1  UNL1       -0.2721
     16 C         138.5048  142.2027  159.7099 C.3     1  UNL1        0.0896
     17 C         142.9937  142.5395  162.7076 C.3     1  UNL1        0.0769
     18 C         143.0101  143.7325  161.7984 C.2     1  UNL1        0.2066
     19 O         144.1446  144.7114  161.8660 O.2     1  UNL1       -0.2881
     20 C         140.6756  145.5141  159.1445 C.3     1  UNL1        0.2526
     21 O         141.9083  145.1395  159.9125 O.2     1  UNL1       -0.4689
     22 O         144.0627  138.7466  166.4118 O.3     1  UNL1       -0.4684
     23 C         144.2952  137.3862  166.9993 C.3     1  UNL1        0.2526
     24 C         139.5574  137.2168  164.3232 C.3     1  UNL1        0.2351
     25 O         138.5790  137.1233  165.4564 O.3     1  UNL1       -0.4404
     26 C         138.0950  138.3707  166.1343 C.2     1  UNL1        0.3417
     27 O         137.6470  138.3213  167.5650 O.2     1  UNL1       -0.2449
     28 C         138.0591  139.6677  165.3816 C.2     1  UNL1        0.0819
     29 C         138.8843  140.8296  165.8497 C.2     1  UNL1        0.0066
     30 C         138.8484  142.1266  165.0969 C.ar    1  UNL1        0.0002
     31 C         137.7366  142.4009  164.1280 C.ar    1  UNL1        0.0000
     32 C         137.7007  143.6978  163.3752 C.ar    1  UNL1        0.0000
     33 C         138.7766  144.7205  163.5915 C.ar    1  UNL1        0.0000
     34 C         139.8883  144.4462  164.5604 C.ar    1  UNL1        0.0000
     35 C         139.9242  143.1493  165.3131 C.ar    1  UNL1        0.0000
     36 O         144.0955  141.1326  164.5935 O.3     1  UNL1       -0.4183
     37 C         144.0099  142.3177  165.5088 C.2     1  UNL1        0.3460
     38 O         145.0908  143.3577  165.4924 O.2     1  UNL1       -0.2445
     39 C         142.8434  142.4631  166.4407 C.2     1  UNL1        0.0823
     40 C         142.8083  141.6886  167.7248 C.2     1  UNL1        0.0067
     41 C         141.6418  141.8340  168.6565 C.ar    1  UNL1        0.0002
     42 C         141.3662  143.1543  169.3130 C.ar    1  UNL1        0.0000
     43 C         140.1997  143.2996  170.2448 C.ar    1  UNL1        0.0000
     44 C         139.3089  142.1246  170.5201 C.ar    1  UNL1        0.0000
     45 C         139.5844  140.8044  169.8637 C.ar    1  UNL1        0.0000
     46 C         140.7509  140.6590  168.9319 C.ar    1  UNL1        0.0000
@<TRIPOS>BOND
     1    20    21    1
     2    21     1    1
     3     1     2    2
     4     3     2    1
     5     3     4    1
     6     4     5    1
     7     5     6    1
     8     6     7   ar
     9     7    24    1
    10    24    25    1
    11    25    26    1
    12    26    27    2
    13    26    28    1
    14    28    29    2
    15    29    30    1
    16    30    31   ar
    17    31    32   ar
    18    32    33   ar
    19    33    34   ar
    20    34    35   ar
    21     7     8   ar
    22     8     9   ar
    23     9    22    1
    24    22    23    1
    25     9    10   ar
    26    10    36    1
    27    36    37    1
    28    37    38    2
    29    37    39    1
    30    39    40    2
    31    40    41    1
    32    41    42   ar
    33    42    43   ar
    34    43    44   ar
    35    44    45   ar
    36    45    46   ar
    37    10    11   ar
    38    11    12    1
    39    12    13    1
    40    13    14    1
    41    14    15    1
    42    15    16    1
    43    12    17    1
    44    17    18    1
    45    18    19    2
    46    18     1    1
    47    12     3    1
    48    15     4    1
    49    11     6   ar
    50    35    30   ar
    51    46    41   ar
@<TRIPOS>MOLECULE
*****
 46 51 0 0 0
SMALL
GASTEIGER

@<TRIPOS>ATOM
      1 C         142.7375  141.0684  156.6837 C.2     1  UNL1        0.1689
      2 C         141.5286  141.9427  156.8388 C.2     1  UNL1        0.0150
      3 C         141.3651  142.7852  158.0690 C.3     1  UNL1        0.0444
      4 C         140.1561  143.6595  158.2240 C.3     1  UNL1        0.0663
      5 C         139.9926  144.5020  159.4542 C.3     1  UNL1        0.0422
      6 C         141.0381  144.4702  160.5294 C.ar    1  UNL1       -0.0221
      7 C         140.8746  145.3128  161.7596 C.ar    1  UNL1        0.0203
      8 C         141.9200  145.2810  162.8348 C.ar    1  UNL1        0.0390
      9 C         143.1290  144.4068  162.6797 C.ar    1  UNL1        0.1725
     10 C         143.2925  143.5643  161.4495 C.ar    1  UNL1        0.1780
     11 C         142.2470  143.5960  160.3744 C.ar    1  UNL1        0.0116
     12 C         142.4105  142.7535  159.1442 C.3     1  UNL1        0.0354
     13 C         142.0099  142.3189  157.9863 C.3     1  UNL1        0.0223
     14 C         141.4523  142.3358  157.4129 C.3     1  UNL1        0.0725
     15 N         140.8074  142.8021  157.4956 N.3     1  UNL1       -0.2721
     16 C         139.2741  142.8487  155.9187 C.3     1  UNL1        0.0896
     17 C         143.6195  141.8792  158.9891 C.3     1  UNL1        0.0769
     18 C         143.7830  141.0367  157.7589 C.2     1  UNL1        0.2066
     19 O         144.9920  140.1624  157.6039 O.2     1  UNL1       -0.2881
     20 C         142.3517  138.8305  155.4217 C.3     1  UNL1        0.2526
     21 O         142.9010  140.2259  155.4535 O.2     1  UNL1       -0.4689
     22 O         144.1745  144.3750  163.7549 O.3     1  UNL1       -0.4684
     23 C         143.8855  143.6988  165.0623 C.3     1  UNL1        0.2526
     24 C         139.6656  146.1871  161.9147 C.3     1  UNL1        0.2351
     25 O         138.3214  145.5705  162.1657 O.3     1  UNL1       -0.4404
     26 C         138.1991  144.3817  163.0722 C.2     1  UNL1        0.3417
     27 O         138.1307  144.5753  164.5581 O.2     1  UNL1       -0.2449
     28 C         138.1451  142.9991  162.4927 C.2     1  UNL1        0.0819
     29 C         139.3522  142.1110  162.5580 C.2     1  UNL1        0.0066
     30 C         139.2983  140.7284  161.9785 C.ar    1  UNL1        0.0002
     31 C         138.1866  139.7973  162.3623 C.ar    1  UNL1        0.0000
     32 C         138.1327  138.4147  161.7829 C.ar    1  UNL1        0.0000
     33 C         139.1904  137.9634  160.8197 C.ar    1  UNL1        0.0000
     34 C         140.3020  138.8946  160.4360 C.ar    1  UNL1        0.0000
     35 C         140.3559  140.2771  161.0154 C.ar    1  UNL1        0.0000
     36 O         144.5015  142.6900  161.2945 O.3     1  UNL1       -0.4183
     37 C         144.7539  141.5791  162.2703 C.2     1  UNL1        0.3460
     38 O         146.0848  141.4687  162.9533 O.2     1  UNL1       -0.2445
     39 C         143.6753  140.5786  162.5632 C.2     1  UNL1        0.0823
     40 C         143.1197  140.4595  163.9514 C.2     1  UNL1        0.0067
     41 C         142.0412  139.4590  164.2442 C.ar    1  UNL1        0.0002
     42 C         142.0932  138.0959  163.6205 C.ar    1  UNL1        0.0000
     43 C         141.0146  137.0954  163.9134 C.ar    1  UNL1        0.0000
     44 C         139.8840  137.4581  164.8299 C.ar    1  UNL1        0.0000
     45 C         139.8319  138.8213  165.4537 C.ar    1  UNL1        0.0000
     46 C         140.9105  139.8217  165.1608 C.ar    1  UNL1        0.0000
@<TRIPOS>BOND
     1    20    21    1
     2    21     1    1
     3     1     2    2
     4     3     2    1
     5     3     4    1
     6     4     5    1
     7     5     6    1
     8     6     7   ar
     9     7    24    1
    10    24    25    1
    11    25    26    1
    12    26    27    2
    13    26    28    1
    14    28    29    2
    15    29    30    1
    16    30    31   ar
    17    31    32   ar
    18    32    33   ar
    19    33    34   ar
    20    34    35   ar
    21     7     8   ar
    22     8     9   ar
    23     9    22    1
    24    22    23    1
    25     9    10   ar
    26    10    36    1
    27    36    37    1
    28    37    38    2
    29    37    39    1
    30    39    40    2
    31    40    41    1
    32    41    42   ar
    33    42    43   ar
    34    43    44   ar
    35    44    45   ar
    36    45    46   ar
    37    10    11   ar
    38    11    12    1
    39    12    13    1
    40    13    14    1
    41    14    15    1
    42    15    16    1
    43    12    17    1
    44    17    18    1
    45    18    19    2
    46    18     1    1
    47    12     3    1
    48    15     4    1
    49    11     6   ar
    50    35    30   ar
    51    46    41   ar
@<TRIPOS>MOLECULE
*****
 46 51 0 0 0
SMALL
GASTEIGER

@<TRIPOS>ATOM
      1 C         142.9596  141.6987  156.8514 C.2     1  UNL1        0.1689
      2 C         142.5721  140.3387  157.3515 C.2     1  UNL1        0.0150
      3 C         141.5087  140.2001  158.4003 C.3     1  UNL1        0.0444
      4 C         141.1213  138.8400  158.9003 C.3     1  UNL1        0.0663
      5 C         140.0578  138.7013  159.9491 C.3     1  UNL1        0.0422
      6 C         139.3818  139.9229  160.4978 C.ar    1  UNL1       -0.0221
      7 C         138.3184  139.7843  161.5465 C.ar    1  UNL1        0.0203
      8 C         137.6424  141.0057  162.0952 C.ar    1  UNL1        0.0390
      9 C         138.0298  142.3657  161.5951 C.ar    1  UNL1        0.1725
     10 C         139.0932  142.5043  160.5463 C.ar    1  UNL1        0.1780
     11 C         139.7692  141.2829  159.9977 C.ar    1  UNL1        0.0116
     12 C         140.8327  141.4215  158.9489 C.3     1  UNL1        0.0354
     13 C         141.7153  140.9254  158.1335 C.3     1  UNL1        0.0223
     14 C         142.0759  140.2740  157.8409 C.3     1  UNL1        0.0725
     15 N         141.8693  139.5486  158.1076 N.3     1  UNL1       -0.2721
     16 C         142.8607  137.7571  157.3029 C.3     1  UNL1        0.0896
     17 C         141.2201  142.7816  158.4488 C.3     1  UNL1        0.0769
     18 C         142.2836  142.9202  157.4001 C.2     1  UNL1        0.2066
     19 O         142.6710  144.2803  156.9000 O.2     1  UNL1       -0.2881
     20 C         145.1745  140.8766  155.7706 C.3     1  UNL1        0.2526
     21 O         144.0230  141.8374  155.8027 O.2     1  UNL1       -0.4689
     22 O         137.3538  143.5873  162.1437 O.3     1  UNL1       -0.4684
     23 C         137.5531  143.9737  163.5793 C.3     1  UNL1        0.2526
     24 C         137.9309  138.4241  162.0466 C.3     1  UNL1        0.2351
     25 O         138.7862  137.7270  163.0628 O.3     1  UNL1       -0.4404
     26 C         139.3813  138.5021  164.2007 C.2     1  UNL1        0.3417
     27 O         138.8320  138.3400  165.5871 O.2     1  UNL1       -0.2449
     28 C         140.5258  139.4394  163.9523 C.2     1  UNL1        0.0819
     29 C         141.7845  138.9331  163.3124 C.2     1  UNL1        0.0066
     30 C         142.9290  139.8704  163.0640 C.ar    1  UNL1        0.0002
     31 C         144.1832  139.7552  163.8788 C.ar    1  UNL1        0.0000
     32 C         145.3277  140.6924  163.6304 C.ar    1  UNL1        0.0000
     33 C         145.2180  141.7449  162.5672 C.ar    1  UNL1        0.0000
     34 C         143.9638  141.8601  161.7525 C.ar    1  UNL1        0.0000
     35 C         142.8193  140.9229  162.0009 C.ar    1  UNL1        0.0000
     36 O         139.4807  143.8645  160.0462 O.3     1  UNL1       -0.4183
     37 C         140.0589  144.8747  160.9923 C.2     1  UNL1        0.3460
     38 O         139.5058  146.2685  161.0311 O.2     1  UNL1       -0.2445
     39 C         141.1902  144.4913  161.8995 C.2     1  UNL1        0.0823
     40 C         140.9341  144.2523  163.3580 C.2     1  UNL1        0.0067
     41 C         142.0654  143.8688  164.2652 C.ar    1  UNL1        0.0002
     42 C         143.3712  144.6028  164.1871 C.ar    1  UNL1        0.0000
     43 C         144.5026  144.2193  165.0943 C.ar    1  UNL1        0.0000
     44 C         144.3281  143.1019  166.0796 C.ar    1  UNL1        0.0000
     45 C         143.0222  142.3679  166.1577 C.ar    1  UNL1        0.0000
     46 C         141.8909  142.7514  165.2506 C.ar    1  UNL1        0.0000
@<TRIPOS>BOND
     1    20    21    1
     2    21     1    1
     3     1     2    2
     4     3     2    1
     5     3     4    1
     6     4     5    1
     7     5     6    1
     8     6     7   ar
     9     7    24    1
    10    24    25    1
    11    25    26    1
    12    26    27    2
    13    26    28    1
    14    28    29    2
    15    29    30    1
    16    30    31   ar
    17    31    32   ar
    18    32    33   ar
    19    33    34   ar
    20    34    35   ar
    21     7     8   ar
    22     8     9   ar
    23     9    22    1
    24    22    23    1
    25     9    10   ar
    26    10    36    1
    27    36    37    1
    28    37    38    2
    29    37    39    1
    30    39    40    2
    31    40    41    1
    32    41    42   ar
    33    42    43   ar
    34    43    44   ar
    35    44    45   ar
    36    45    46   ar
    37    10    11   ar
    38    11    12    1
    39    12    13    1
    40    13    14    1
    41    14    15    1
    42    15    16    1
    43    12    17    1
    44    17    18    1
    45    18    19    2
    46    18     1    1
    47    12     3    1
    48    15     4    1
    49    11     6   ar
    50    35    30   ar
    51    46    41   ar
@<TRIPOS>MOLECULE
*****
 46 51 0 0 0
SMALL
GASTEIGER

@<TRIPOS>ATOM
      1 C         138.5341  140.0108  159.8921 C.2     1  UNL1        0.1689
      2 C         139.7415  140.8733  159.6724 C.2     1  UNL1        0.0150
      3 C         140.8831  140.8272  160.6444 C.3     1  UNL1        0.0444
      4 C         142.0905  141.6897  160.4247 C.3     1  UNL1        0.0663
      5 C         143.2320  141.6436  161.3967 C.3     1  UNL1        0.0422
      6 C         143.1661  140.7350  162.5885 C.ar    1  UNL1       -0.0221
      7 C         144.3076  140.6889  163.5605 C.ar    1  UNL1        0.0203
      8 C         144.2417  139.7804  164.7522 C.ar    1  UNL1        0.0390
      9 C         143.0343  138.9180  164.9719 C.ar    1  UNL1        0.1725
     10 C         141.8928  138.9640  163.9999 C.ar    1  UNL1        0.1780
     11 C         141.9587  139.8726  162.8082 C.ar    1  UNL1        0.0116
     12 C         140.8172  139.9186  161.8361 C.3     1  UNL1        0.0354
     13 C         140.2391  140.3672  160.7616 C.3     1  UNL1        0.0223
     14 C         140.2743  140.8517  160.1260 C.3     1  UNL1        0.0725
     15 N         140.9183  141.3118  160.0088 N.3     1  UNL1       -0.2721
     16 C         141.0149  142.6443  158.2610 C.3     1  UNL1        0.0896
     17 C         139.6098  139.0562  162.0558 C.3     1  UNL1        0.0769
     18 C         138.4683  139.1023  161.0838 C.2     1  UNL1        0.2066
     19 O         137.2608  138.2398  161.3036 O.2     1  UNL1       -0.2881
     20 C         137.4630  140.9576  157.7228 C.3     1  UNL1        0.2526
     21 O         137.3926  140.0569  158.9201 O.2     1  UNL1       -0.4689
     22 O         142.9684  138.0094  166.1636 O.3     1  UNL1       -0.4684
     23 C         144.2274  137.6188  166.8795 C.3     1  UNL1        0.2526
     24 C         145.5151  141.5514  163.3408 C.3     1  UNL1        0.2351
     25 O         145.5004  142.9871  163.7752 O.3     1  UNL1       -0.4404
     26 C         144.4478  143.4717  164.7277 C.2     1  UNL1        0.3417
     27 O         144.7751  143.6478  166.1810 O.2     1  UNL1       -0.2449
     28 C         143.0679  143.7802  164.2270 C.2     1  UNL1        0.0819
     29 C         141.8703  143.2188  164.9346 C.2     1  UNL1        0.0066
     30 C         140.4904  143.5273  164.4339 C.ar    1  UNL1        0.0002
     31 C         139.3994  143.8696  165.4048 C.ar    1  UNL1        0.0000
     32 C         138.0195  144.1782  164.9041 C.ar    1  UNL1        0.0000
     33 C         137.7306  144.1444  163.4325 C.ar    1  UNL1        0.0000
     34 C         138.8217  143.8020  162.4617 C.ar    1  UNL1        0.0000
     35 C         140.2016  143.4935  162.9624 C.ar    1  UNL1        0.0000
     36 O         140.6854  138.1015  164.2196 O.3     1  UNL1       -0.4183
     37 C         139.6700  138.4826  165.2558 C.2     1  UNL1        0.3460
     38 O         138.4516  137.6319  165.4605 O.2     1  UNL1       -0.2445
     39 C         139.8730  139.7144  166.0874 C.2     1  UNL1        0.0823
     40 C         140.2814  139.5897  167.5253 C.2     1  UNL1        0.0067
     41 C         140.4844  140.8214  168.3569 C.ar    1  UNL1        0.0002
     42 C         141.6429  141.7324  168.0776 C.ar    1  UNL1        0.0000
     43 C         141.8459  142.9642  168.9092 C.ar    1  UNL1        0.0000
     44 C         140.8903  143.2850  170.0200 C.ar    1  UNL1        0.0000
     45 C         139.7318  142.3741  170.2993 C.ar    1  UNL1        0.0000
     46 C         139.5288  141.1423  169.4677 C.ar    1  UNL1        0.0000
@<TRIPOS>BOND
     1    20    21    1
     2    21     1    1
     3     1     2    2
     4     3     2    1
     5     3     4    1
     6     4     5    1
     7     5     6    1
     8     6     7   ar
     9     7    24    1
    10    24    25    1
    11    25    26    1
    12    26    27    2
    13    26    28    1
    14    28    29    2
    15    29    30    1
    16    30    31   ar
    17    31    32   ar
    18    32    33   ar
    19    33    34   ar
    20    34    35   ar
    21     7     8   ar
    22     8     9   ar
    23     9    22    1
    24    22    23    1
    25     9    10   ar
    26    10    36    1
    27    36    37    1
    28    37    38    2
    29    37    39    1
    30    39    40    2
    31    40    41    1
    32    41    42   ar
    33    42    43   ar
    34    43    44   ar
    35    44    45   ar
    36    45    46   ar
    37    10    11   ar
    38    11    12    1
    39    12    13    1
    40    13    14    1
    41    14    15    1
    42    15    16    1
    43    12    17    1
    44    17    18    1
    45    18    19    2
    46    18     1    1
    47    12     3    1
    48    15     4    1
    49    11     6   ar
    50    35    30   ar
    51    46    41   ar
@<TRIPOS>MOLECULE
*****
 46 51 0 0 0
SMALL
GASTEIGER

@<TRIPOS>ATOM
      1 C         144.4576  142.9553  163.6430 C.2     1  UNL1        0.1689
      2 C         144.3687  141.4952  163.3114 C.2     1  UNL1        0.0150
      3 C         143.9214  141.0618  161.9468 C.3     1  UNL1        0.0444
      4 C         143.8325  139.6015  161.6153 C.3     1  UNL1        0.0663
      5 C         143.3852  139.1682  160.2507 C.3     1  UNL1        0.0422
      6 C         143.0268  140.1951  159.2176 C.ar    1  UNL1       -0.0221
      7 C         142.5795  139.7617  157.8530 C.ar    1  UNL1        0.0203
      8 C         142.2211  140.7885  156.8200 C.ar    1  UNL1        0.0390
      9 C         142.3100  142.2486  157.1515 C.ar    1  UNL1        0.1725
     10 C         142.7573  142.6820  158.5161 C.ar    1  UNL1        0.1780
     11 C         143.1157  141.6552  159.5492 C.ar    1  UNL1        0.0116
     12 C         143.5630  142.0886  160.9138 C.3     1  UNL1        0.0354
     13 C         143.9688  141.8406  162.1236 C.3     1  UNL1        0.0223
     14 C         144.1599  141.2929  162.6746 C.3     1  UNL1        0.0725
     15 N         144.1125  140.5141  162.4978 N.3     1  UNL1       -0.2721
     16 C         144.6382  139.0081  164.0129 C.3     1  UNL1        0.0896
     17 C         143.6519  143.5488  161.2453 C.3     1  UNL1        0.0769
     18 C         144.0992  143.9821  162.6099 C.2     1  UNL1        0.2066
     19 O         144.1881  145.4424  162.9414 O.2     1  UNL1       -0.2881
     20 C         144.0713  143.0586  166.2101 C.3     1  UNL1        0.2526
     21 O         144.9049  143.3887  165.0076 O.2     1  UNL1       -0.4689
     22 O         141.9516  143.2755  156.1185 O.3     1  UNL1       -0.4684
     23 C         143.0250  143.8969  155.2748 C.3     1  UNL1        0.2526
     24 C         142.4907  138.3014  157.5215 C.3     1  UNL1        0.2351
     25 O         141.1580  137.6129  157.5182 O.3     1  UNL1       -0.4404
     26 C         139.9463  138.3216  158.0468 C.2     1  UNL1        0.3417
     27 O         138.9037  138.8340  157.0979 O.2     1  UNL1       -0.2449
     28 C         139.7772  138.5180  159.5242 C.2     1  UNL1        0.0819
     29 C         139.5046  139.8874  160.0725 C.2     1  UNL1        0.0066
     30 C         139.3355  140.0837  161.5499 C.ar    1  UNL1        0.0002
     31 C         138.0166  139.7867  162.1999 C.ar    1  UNL1        0.0000
     32 C         137.8475  139.9831  163.6773 C.ar    1  UNL1        0.0000
     33 C         138.9972  140.4764  164.5048 C.ar    1  UNL1        0.0000
     34 C         140.3161  140.7734  163.8549 C.ar    1  UNL1        0.0000
     35 C         140.4852  140.5770  162.3774 C.ar    1  UNL1        0.0000
     36 O         142.8462  144.1423  158.8477 O.3     1  UNL1       -0.4183
     37 C         141.5940  144.9495  159.0212 C.2     1  UNL1        0.3460
     38 O         140.9934  145.6640  157.8470 O.2     1  UNL1       -0.2445
     39 C         140.9422  145.0423  160.3691 C.2     1  UNL1        0.0823
     40 C         140.0376  143.9431  160.8420 C.2     1  UNL1        0.0067
     41 C         139.3859  144.0359  162.1898 C.ar    1  UNL1        0.0002
     42 C         140.1279  144.6473  163.3412 C.ar    1  UNL1        0.0000
     43 C         139.4761  144.7401  164.6890 C.ar    1  UNL1        0.0000
     44 C         138.0823  144.2215  164.8854 C.ar    1  UNL1        0.0000
     45 C         137.3404  143.6101  163.7340 C.ar    1  UNL1        0.0000
     46 C         137.9921  143.5173  162.3863 C.ar    1  UNL1        0.0000
@<TRIPOS>BOND
     1    20    21    1
     2    21     1    1
     3     1     2    2
     4     3     2    1
     5     3     4    1
     6     4     5    1
     7     5     6    1
     8     6     7   ar
     9     7    24    1
    10    24    25    1
    11    25    26    1
    12    26    27    2
    13    26    28    1
    14    28    29    2
    15    29    30    1
    16    30    31   ar
    17    31    32   ar
    18    32    33   ar
    19    33    34   ar
    20    34    35   ar
    21     7     8   ar
    22     8     9   ar
    23     9    22    1
    24    22    23    1
    25     9    10   ar
    26    10    36    1
    27    36    37    1
    28    37    38    2
    29    37    39    1
    30    39    40    2
    31    40    41    1
    32    41    42   ar
    33    42    43   ar
    34    43    44   ar
    35    44    45   ar
    36    45    46   ar
    37    10    11   ar
    38    11    12    1
    39    12    13    1
    40    13    14    1
    41    14    15    1
    42    15    16    1
    43    12    17    1
    44    17    18    1
    45    18    19    2
    46    18     1    1
    47    12     3    1
    48    15     4    1
    49    11     6   ar
    50    35    30   ar
    51    46    41   ar
@<TRIPOS>MOLECULE
*****
 46 51 0 0 0
SMALL
GASTEIGER

@<TRIPOS>ATOM
      1 C         140.8948  138.7083  158.5839 C.2     1  UNL1        0.1689
      2 C         139.8908  139.8134  158.7278 C.2     1  UNL1        0.0150
      3 C         140.1580  140.9519  159.6672 C.3     1  UNL1        0.0444
      4 C         139.1539  142.0570  159.8111 C.3     1  UNL1        0.0663
      5 C         139.4212  143.1955  160.7504 C.3     1  UNL1        0.0422
      6 C         140.6925  143.2289  161.5458 C.ar    1  UNL1       -0.0221
      7 C         140.9597  144.3675  162.4852 C.ar    1  UNL1        0.0203
      8 C         142.2310  144.4009  163.2806 C.ar    1  UNL1        0.0390
      9 C         143.2350  143.2959  163.1367 C.ar    1  UNL1        0.1725
     10 C         142.9678  142.1574  162.1973 C.ar    1  UNL1        0.1780
     11 C         141.6965  142.1239  161.4019 C.ar    1  UNL1        0.0116
     12 C         141.4293  140.9854  160.4626 C.3     1  UNL1        0.0354
     13 C         140.6935  140.3625  159.5904 C.3     1  UNL1        0.0223
     14 C         140.0155  140.3447  159.1662 C.3     1  UNL1        0.0725
     15 N         139.4799  140.9341  159.2429 N.3     1  UNL1       -0.2721
     16 C         137.6154  140.8850  158.0763 C.3     1  UNL1        0.0896
     17 C         142.4333  139.8803  160.3187 C.3     1  UNL1        0.0769
     18 C         142.1660  138.7418  159.3793 C.2     1  UNL1        0.2066
     19 O         143.1701  137.6367  159.2354 O.2     1  UNL1       -0.2881
     20 C         139.6748  137.7496  156.5001 C.3     1  UNL1        0.2526
     21 O         140.6275  137.5698  157.6446 O.2     1  UNL1       -0.4689
     22 O         144.5064  143.3293  163.9321 O.3     1  UNL1       -0.4684
     23 C         144.5095  143.9049  165.3173 C.3     1  UNL1        0.2526
     24 C         139.9556  145.4726  162.6291 C.3     1  UNL1        0.2351
     25 O         138.6543  145.2169  163.3299 O.3     1  UNL1       -0.4404
     26 C         138.6463  144.5805  164.6882 C.2     1  UNL1        0.3417
     27 O         138.3033  145.3987  165.8978 O.2     1  UNL1       -0.2449
     28 C         138.9814  143.1260  164.8369 C.2     1  UNL1        0.0819
     29 C         138.1543  142.0902  164.1348 C.2     1  UNL1        0.0066
     30 C         138.4893  140.6357  164.2835 C.ar    1  UNL1        0.0002
     31 C         139.0517  139.8729  163.1208 C.ar    1  UNL1        0.0000
     32 C         139.3868  138.4184  163.2695 C.ar    1  UNL1        0.0000
     33 C         139.1594  137.7267  164.5810 C.ar    1  UNL1        0.0000
     34 C         138.5971  138.4895  165.7437 C.ar    1  UNL1        0.0000
     35 C         138.2620  139.9440  165.5949 C.ar    1  UNL1        0.0000
     36 O         143.9719  141.0523  162.0534 O.3     1  UNL1       -0.4183
     37 C         144.0104  139.9385  163.0574 C.2     1  UNL1        0.3460
     38 O         144.4057  138.5563  162.6293 O.2     1  UNL1       -0.2445
     39 C         143.6535  140.2068  164.4894 C.2     1  UNL1        0.0823
     40 C         142.2169  140.3794  164.8847 C.2     1  UNL1        0.0067
     41 C         141.8601  140.6477  166.3167 C.ar    1  UNL1        0.0002
     42 C         141.5623  142.0476  166.7658 C.ar    1  UNL1        0.0000
     43 C         141.2055  142.3159  168.1978 C.ar    1  UNL1        0.0000
     44 C         141.1465  141.1844  169.1808 C.ar    1  UNL1        0.0000
     45 C         141.4444  139.7845  168.7317 C.ar    1  UNL1        0.0000
     46 C         141.8011  139.5162  167.2997 C.ar    1  UNL1        0.0000
@<TRIPOS>BOND
     1    20    21    1
     2    21     1    1
     3     1     2    2
     4     3     2    1
     5     3     4    1
     6     4     5    1
     7     5     6    1
     8     6     7   ar
     9     7    24    1
    10    24    25    1
    11    25    26    1
    12    26    27    2
    13    26    28    1
    14    28    29    2
    15    29    30    1
    16    30    31   ar
    17    31    32   ar
    18    32    33   ar
    19    33    34   ar
    20    34    35   ar
    21     7     8   ar
    22     8     9   ar
    23     9    22    1
    24    22    23    1
    25     9    10   ar
    26    10    36    1
    27    36    37    1
    28    37    38    2
    29    37    39    1
    30    39    40    2
    31    40    41    1
    32    41    42   ar
    33    42    43   ar
    34    43    44   ar
    35    44    45   ar
    36    45    46   ar
    37    10    11   ar
    38    11    12    1
    39    12    13    1
    40    13    14    1
    41    14    15    1
    42    15    16    1
    43    12    17    1
    44    17    18    1
    45    18    19    2
    46    18     1    1
    47    12     3    1
    48    15     4    1
    49    11     6   ar
    50    35    30   ar
    51    46    41   ar
@<TRIPOS>MOLECULE
*****
 46 51 0 0 0
SMALL
GASTEIGER

@<TRIPOS>ATOM
      1 C         141.3075  139.5317  156.9579 C.2     1  UNL1        0.1689
      2 C         142.5827  139.9668  157.6169 C.2     1  UNL1        0.0150
      3 C         142.7950  139.7137  159.0801 C.3     1  UNL1        0.0444
      4 C         144.0703  140.1489  159.7392 C.3     1  UNL1        0.0663
      5 C         144.2827  139.8958  161.2023 C.3     1  UNL1        0.0422
      6 C         143.2197  139.2076  162.0064 C.ar    1  UNL1       -0.0221
      7 C         143.4321  138.9545  163.4696 C.ar    1  UNL1        0.0203
      8 C         142.3692  138.2663  164.2737 C.ar    1  UNL1        0.0390
      9 C         141.0940  137.8312  163.6146 C.ar    1  UNL1        0.1725
     10 C         140.8816  138.0843  162.1515 C.ar    1  UNL1        0.1780
     11 C         141.9445  138.7725  161.3474 C.ar    1  UNL1        0.0116
     12 C         141.7321  139.0255  159.8842 C.3     1  UNL1        0.0354
     13 C         142.1149  139.4817  158.7286 C.3     1  UNL1        0.0223
     14 C         142.6818  139.8487  158.2998 C.3     1  UNL1        0.0725
     15 N         143.3620  140.0808  158.6513 N.3     1  UNL1       -0.2721
     16 C         144.9209  141.0902  157.4719 C.3     1  UNL1        0.0896
     17 C         140.4569  138.5904  159.2251 C.3     1  UNL1        0.0769
     18 C         140.2446  138.8435  157.7620 C.2     1  UNL1        0.2066
     19 O         138.9693  138.4083  157.1029 O.2     1  UNL1       -0.2881
     20 C         140.3471  141.0048  155.0454 C.3     1  UNL1        0.2526
     21 O         141.0951  139.7847  155.4947 O.2     1  UNL1       -0.4689
     22 O         140.0310  137.1429  164.4187 O.3     1  UNL1       -0.4684
     23 C         139.2562  137.9093  165.4495 C.3     1  UNL1        0.2526
     24 C         144.7074  139.3897  164.1287 C.3     1  UNL1        0.2351
     25 O         144.9528  140.8444  164.4002 O.3     1  UNL1       -0.4404
     26 C         143.8147  141.7347  164.8025 C.2     1  UNL1        0.3417
     27 O         143.3195  141.7254  166.2185 O.2     1  UNL1       -0.2449
     28 C         143.1717  142.6344  163.7890 C.2     1  UNL1        0.0819
     29 C         141.9954  142.1492  162.9946 C.2     1  UNL1        0.0066
     30 C         141.3524  143.0489  161.9811 C.ar    1  UNL1        0.0002
     31 C         141.3333  144.5327  162.2004 C.ar    1  UNL1        0.0000
     32 C         140.6903  145.4324  161.1869 C.ar    1  UNL1        0.0000
     33 C         140.0665  144.8482  159.9541 C.ar    1  UNL1        0.0000
     34 C         140.0857  143.3645  159.7349 C.ar    1  UNL1        0.0000
     35 C         140.7286  142.4648  160.7484 C.ar    1  UNL1        0.0000
     36 O         139.6063  137.6491  161.4924 O.3     1  UNL1       -0.4183
     37 C         138.3557  138.4576  161.6715 C.2     1  UNL1        0.3460
     38 O         137.0132  137.8070  161.5155 O.2     1  UNL1       -0.2445
     39 C         138.4475  139.9169  162.0067 C.2     1  UNL1        0.0823
     40 C         138.2110  140.3795  163.4138 C.2     1  UNL1        0.0067
     41 C         138.3028  141.8387  163.7489 C.ar    1  UNL1        0.0002
     42 C         137.6680  142.8565  162.8483 C.ar    1  UNL1        0.0000
     43 C         137.7599  144.3157  163.1834 C.ar    1  UNL1        0.0000
     44 C         138.4865  144.7571  164.4192 C.ar    1  UNL1        0.0000
     45 C         139.1214  143.7393  165.3198 C.ar    1  UNL1        0.0000
     46 C         139.0295  142.2802  164.9847 C.ar    1  UNL1        0.0000
@<TRIPOS>BOND
     1    20    21    1
     2    21     1    1
     3     1     2    2
     4     3     2    1
     5     3     4    1
     6     4     5    1
     7     5     6    1
     8     6     7   ar
     9     7    24    1
    10    24    25    1
    11    25    26    1
    12    26    27    2
    13    26    28    1
    14    28    29    2
    15    29    30    1
    16    30    31   ar
    17    31    32   ar
    18    32    33   ar
    19    33    34   ar
    20    34    35   ar
    21     7     8   ar
    22     8     9   ar
    23     9    22    1
    24    22    23    1
    25     9    10   ar
    26    10    36    1
    27    36    37    1
    28    37    38    2
    29    37    39    1
    30    39    40    2
    31    40    41    1
    32    41    42   ar
    33    42    43   ar
    34    43    44   ar
    35    44    45   ar
    36    45    46   ar
    37    10    11   ar
    38    11    12    1
    39    12    13    1
    40    13    14    1
    41    14    15    1
    42    15    16    1
    43    12    17    1
    44    17    18    1
    45    18    19    2
    46    18     1    1
    47    12     3    1
    48    15     4    1
    49    11     6   ar
    50    35    30   ar
    51    46    41   ar
@<TRIPOS>MOLECULE
*****
 46 51 0 0 0
SMALL
GASTEIGER

@<TRIPOS>ATOM
      1 C         143.2791  138.8432  164.4206 C.2     1  UNL1        0.1689
      2 C         144.0152  139.9700  163.7584 C.2     1  UNL1        0.0150
      3 C         143.5133  140.5347  162.4626 C.3     1  UNL1        0.0444
      4 C         144.2494  141.6615  161.8004 C.3     1  UNL1        0.0663
      5 C         143.7475  142.2263  160.5045 C.3     1  UNL1        0.0422
      6 C         142.5095  141.6641  159.8709 C.ar    1  UNL1       -0.0221
      7 C         142.0076  142.2289  158.5751 C.ar    1  UNL1        0.0203
      8 C         140.7697  141.6668  157.9415 C.ar    1  UNL1        0.0390
      9 C         140.0336  140.5401  158.6037 C.ar    1  UNL1        0.1725
     10 C         140.5355  139.9753  159.8995 C.ar    1  UNL1        0.1780
     11 C         141.7735  140.5374  160.5331 C.ar    1  UNL1        0.0116
     12 C         142.2753  139.9727  161.8290 C.3     1  UNL1        0.0354
     13 C         143.1207  139.9338  162.8158 C.3     1  UNL1        0.0223
     14 C         143.7810  140.2335  163.1537 C.3     1  UNL1        0.0725
     15 N         144.1736  140.8345  162.8005 N.3     1  UNL1       -0.2721
     16 C         145.9893  141.6589  163.7298 C.3     1  UNL1        0.0896
     17 C         141.5393  138.8459  162.4912 C.3     1  UNL1        0.0769
     18 C         142.0412  138.2812  163.7870 C.2     1  UNL1        0.2066
     19 O         141.3051  137.1544  164.4492 O.2     1  UNL1       -0.2881
     20 C         143.1858  138.7367  167.0148 C.3     1  UNL1        0.2526
     21 O         143.7810  138.2785  165.7165 O.2     1  UNL1       -0.4689
     22 O         138.7956  139.9780  157.9701 O.3     1  UNL1       -0.4684
     23 C         138.0764  140.7568  156.9088 C.3     1  UNL1        0.2526
     24 C         142.7437  143.3557  157.9128 C.3     1  UNL1        0.2351
     25 O         142.6150  144.7517  158.4463 O.3     1  UNL1       -0.4404
     26 C         141.2768  145.2650  158.8888 C.2     1  UNL1        0.3417
     27 O         140.3304  145.8546  157.8854 O.2     1  UNL1       -0.2449
     28 C         140.8851  145.1888  160.3348 C.2     1  UNL1        0.0819
     29 C         139.7895  144.2597  160.7670 C.2     1  UNL1        0.0066
     30 C         139.3977  144.1835  162.2129 C.ar    1  UNL1        0.0002
     31 C         140.3402  144.6734  163.2721 C.ar    1  UNL1        0.0000
     32 C         139.9484  144.5972  164.7181 C.ar    1  UNL1        0.0000
     33 C         138.6142  144.0310  165.1048 C.ar    1  UNL1        0.0000
     34 C         137.6718  143.5412  164.0455 C.ar    1  UNL1        0.0000
     35 C         138.0636  143.6174  162.5996 C.ar    1  UNL1        0.0000
     36 O         139.7994  138.8485  160.5617 O.3     1  UNL1       -0.4183
     37 C         138.5488  139.1258  161.3422 C.2     1  UNL1        0.3460
     38 O         137.2917  139.5247  160.6276 O.2     1  UNL1       -0.2445
     39 C         138.5552  139.0041  162.8373 C.2     1  UNL1        0.0823
     40 C         138.9789  140.1684  163.6827 C.2     1  UNL1        0.0067
     41 C         138.9853  140.0467  165.1777 C.ar    1  UNL1        0.0002
     42 C         138.0138  139.1297  165.8597 C.ar    1  UNL1        0.0000
     43 C         138.0203  139.0080  167.3548 C.ar    1  UNL1        0.0000
     44 C         138.9983  139.8033  168.1678 C.ar    1  UNL1        0.0000
     45 C         139.9698  140.7203  167.4858 C.ar    1  UNL1        0.0000
     46 C         139.9634  140.8420  165.9908 C.ar    1  UNL1        0.0000
@<TRIPOS>BOND
     1    20    21    1
     2    21     1    1
     3     1     2    2
     4     3     2    1
     5     3     4    1
     6     4     5    1
     7     5     6    1
     8     6     7   ar
     9     7    24    1
    10    24    25    1
    11    25    26    1
    12    26    27    2
    13    26    28    1
    14    28    29    2
    15    29    30    1
    16    30    31   ar
    17    31    32   ar
    18    32    33   ar
    19    33    34   ar
    20    34    35   ar
    21     7     8   ar
    22     8     9   ar
    23     9    22    1
    24    22    23    1
    25     9    10   ar
    26    10    36    1
    27    36    37    1
    28    37    38    2
    29    37    39    1
    30    39    40    2
    31    40    41    1
    32    41    42   ar
    33    42    43   ar
    34    43    44   ar
    35    44    45   ar
    36    45    46   ar
    37    10    11   ar
    38    11    12    1
    39    12    13    1
    40    13    14    1
    41    14    15    1
    42    15    16    1
    43    12    17    1
    44    17    18    1
    45    18    19    2
    46    18     1    1
    47    12     3    1
    48    15     4    1
    49    11     6   ar
    50    35    30   ar
    51    46    41   ar
@<TRIPOS>MOLECULE
*****
 46 51 0 0 0
SMALL
GASTEIGER

@<TRIPOS>ATOM
      1 C         141.5688  138.9990  164.7833 C.2     1  UNL1        0.1689
      2 C         142.8076  139.4219  164.0509 C.2     1  UNL1        0.0150
      3 C         142.7880  139.5517  162.5567 C.3     1  UNL1        0.0444
      4 C         144.0269  139.9747  161.8243 C.3     1  UNL1        0.0663
      5 C         144.0074  140.1044  160.3300 C.3     1  UNL1        0.0422
      6 C         142.7489  139.8112  159.5682 C.ar    1  UNL1       -0.0221
      7 C         142.7293  139.9409  158.0739 C.ar    1  UNL1        0.0203
      8 C         141.4710  139.6477  157.3120 C.ar    1  UNL1        0.0390
      9 C         140.2322  139.2248  158.0444 C.ar    1  UNL1        0.1725
     10 C         140.2517  139.0950  159.5387 C.ar    1  UNL1        0.1780
     11 C         141.5101  139.3882  160.3005 C.ar    1  UNL1        0.0116
     12 C         141.5296  139.2585  161.7948 C.3     1  UNL1        0.0354
     13 C         142.1273  139.3261  162.9473 C.3     1  UNL1        0.0223
     14 C         142.7984  139.4825  163.3536 C.3     1  UNL1        0.0725
     15 N         143.4592  139.7081  162.9630 N.3     1  UNL1       -0.2721
     16 C         145.3048  140.1381  164.0804 C.3     1  UNL1        0.0896
     17 C         140.2908  138.8355  162.5272 C.3     1  UNL1        0.0769
     18 C         140.3104  138.7058  164.0214 C.2     1  UNL1        0.2066
     19 O         139.0715  138.2828  164.7538 O.2     1  UNL1       -0.2881
     20 C         142.6442  139.5727  167.0777 C.3     1  UNL1        0.2526
     21 O         141.5883  138.8692  166.2775 O.2     1  UNL1       -0.4689
     22 O         138.9737  138.9316  157.2825 O.3     1  UNL1       -0.4684
     23 C         138.4325  139.9391  156.3120 C.3     1  UNL1        0.2526
     24 C         143.9682  140.3639  157.3415 C.3     1  UNL1        0.2351
     25 O         144.1951  141.8127  157.0260 O.3     1  UNL1       -0.4404
     26 C         143.1590  142.8321  157.3963 C.2     1  UNL1        0.3417
     27 O         142.1031  143.2225  156.4050 O.2     1  UNL1       -0.2449
     28 C         143.1788  143.4612  158.7579 C.2     1  UNL1        0.0819
     29 C         141.9982  143.3104  159.6709 C.2     1  UNL1        0.0066
     30 C         142.0180  143.9394  161.0325 C.ar    1  UNL1        0.0002
     31 C         143.0426  143.5122  162.0413 C.ar    1  UNL1        0.0000
     32 C         143.0624  144.1412  163.4029 C.ar    1  UNL1        0.0000
     33 C         142.0575  145.1976  163.7556 C.ar    1  UNL1        0.0000
     34 C         141.0329  145.6248  162.7469 C.ar    1  UNL1        0.0000
     35 C         141.0131  144.9957  161.3853 C.ar    1  UNL1        0.0000
     36 O         139.0128  138.6721  160.2710 O.3     1  UNL1       -0.4183
     37 C         137.9066  139.6576  160.5051 C.2     1  UNL1        0.3460
     38 O         136.7944  139.7878  159.5070 O.2     1  UNL1       -0.2445
     39 C         137.9125  140.5131  161.7373 C.2     1  UNL1        0.0823
     40 C         138.8200  141.7046  161.8187 C.2     1  UNL1        0.0067
     41 C         138.8258  142.5601  163.0508 C.ar    1  UNL1        0.0002
     42 C         139.8106  142.2869  164.1488 C.ar    1  UNL1        0.0000
     43 C         139.8164  143.1424  165.3810 C.ar    1  UNL1        0.0000
     44 C         138.8375  144.2710  165.5151 C.ar    1  UNL1        0.0000
     45 C         137.8527  144.5441  164.4171 C.ar    1  UNL1        0.0000
     46 C         137.8468  143.6887  163.1850 C.ar    1  UNL1        0.0000
@<TRIPOS>BOND
     1    20    21    1
     2    21     1    1
     3     1     2    2
     4     3     2    1
     5     3     4    1
     6     4     5    1
     7     5     6    1
     8     6     7   ar
     9     7    24    1
    10    24    25    1
    11    25    26    1
    12    26    27    2
    13    26    28    1
    14    28    29    2
    15    29    30    1
    16    30    31   ar
    17    31    32   ar
    18    32    33   ar
    19    33    34   ar
    20    34    35   ar
    21     7     8   ar
    22     8     9   ar
    23     9    22    1
    24    22    23    1
    25     9    10   ar
    26    10    36    1
    27    36    37    1
    28    37    38    2
    29    37    39    1
    30    39    40    2
    31    40    41    1
    32    41    42   ar
    33    42    43   ar
    34    43    44   ar
    35    44    45   ar
    36    45    46   ar
    37    10    11   ar
    38    11    12    1
    39    12    13    1
    40    13    14    1
    41    14    15    1
    42    15    16    1
    43    12    17    1
    44    17    18    1
    45    18    19    2
    46    18     1    1
    47    12     3    1
    48    15     4    1
    49    11     6   ar
    50    35    30   ar
    51    46    41   ar
