@<TRIPOS>MOLECULE
*****
 33 39 0 0 0
SMALL
GASTEIGER

@<TRIPOS>ATOM
      1 C         141.3806  142.8155  164.0006 C.ar    1  UNL1        0.0014
      2 C         140.3439  143.6362  164.7089 C.ar    1  UNL1        0.0031
      3 C         139.9481  143.2938  166.1146 C.ar    1  UNL1        0.0366
      4 C         140.5891  142.1307  166.8121 C.ar    1  UNL1        0.1360
      5 C         141.6258  141.3100  166.1038 C.ar    1  UNL1        0.0357
      6 C         142.0216  141.6524  164.6980 C.ar    1  UNL1        0.0007
      7 C         142.2667  140.1469  166.8012 C.3     1  UNL1        0.1580
      8 C         142.9906  138.9613  167.3672 C.3     1  UNL1        0.2351
      9 O         143.9329  138.4493  166.3183 O.2     1  UNL1       -0.4478
     10 C         143.7913  139.3185  165.1041 C.2     1  UNL1        0.2770
     11 N         144.5468  139.1655  163.8174 N.pl3   1  UNL1       -0.3133
     12 N         142.7616  140.3677  165.4024 N.2     1  UNL1       -0.2202
     13 C         141.8709  139.8045  168.2069 C.3     1  UNL1        0.1141
     14 C         141.6921  140.1290  168.0123 C.3     1  UNL1        0.1501
     15 O         141.8801  139.7879  168.2169 O.3     1  UNL1       -0.3532
     16 C         141.6921  140.1290  168.0123 C.3     1  UNL1        0.1501
     17 C         140.8342  140.6252  168.9152 C.3     1  UNL1        0.1395
     18 C         141.2392  139.5732  169.9048 C.3     1  UNL1        0.0404
     19 C         140.2745  140.1409  170.9033 C.3     1  UNL1        0.0072
     20 C         139.8695  141.1929  169.9137 C.3     1  UNL1        0.0404
     21 O         140.1933  141.7883  168.2178 O.3     1  UNL1       -0.4826
     22 H         145.2062  138.4414  163.7168 H       1  UNL1        0.1466
     23 H         144.3833  139.7892  163.0734 H       1  UNL1        0.1466
     24 C         141.3113  146.0496  156.8481 C.3     1  UNL1        0.0538
     25 C         141.5641  145.3009  158.1230 C.ar    1  UNL1        0.0785
     26 C         140.7181  145.3559  159.3604 C.ar    1  UNL1        0.0962
     27 N         141.3385  144.4547  160.3865 N.ar    1  UNL1       -0.2878
     28 C         140.9427  144.1123  161.7923 C.ar    1  UNL1        0.0814
     29 C         141.7764  143.1579  162.5948 C.ar    1  UNL1        0.0177
     30 C         143.0059  142.5460  161.9916 C.ar    1  UNL1        0.0046
     31 C         143.4017  142.8884  160.5859 C.ar    1  UNL1        0.0374
     32 C         142.5680  143.8428  159.7833 C.ar    1  UNL1        0.1474
     33 N         142.7074  144.3657  158.3844 N.ar    1  UNL1       -0.2307
@<TRIPOS>BOND
     1    24    25    1
     2    25    26   ar
     3    26    27   ar
     4    27    28   ar
     5    28    29   ar
     6    29     1    1
     7     1     2   ar
     8     2     3   ar
     9     3     4   ar
    10     4     5   ar
    11     5     6   ar
    12     5     7    1
    13     7     8    1
    14     8     9    1
    15     9    10    1
    16    10    11    1
    17    10    12    2
    18     7    13    1
    19    13    14    1
    20    14    15    1
    21    15    16    1
    22    13    17    1
    23    17    18    1
    24    18    19    1
    25    19    20    1
    26    17    21    1
    27    29    30   ar
    28    30    31   ar
    29    31    32   ar
    30    32    33   ar
    31    33    25   ar
    32    32    27   ar
    33     6     1   ar
    34    12     7    1
    35    16    13    1
    36    20    17    1
    37    21     4    1
    38    11    22    1
    39    11    23    1
@<TRIPOS>MOLECULE
*****
 33 39 0 0 0
SMALL
GASTEIGER

@<TRIPOS>ATOM
      1 C         142.6848  140.6343  163.8776 C.ar    1  UNL1        0.0014
      2 C         143.5446  141.5747  164.6692 C.ar    1  UNL1        0.0031
      3 C         143.1829  141.9093  166.0859 C.ar    1  UNL1        0.0366
      4 C         141.9614  141.3035  166.7112 C.ar    1  UNL1        0.1360
      5 C         141.1016  140.3632  165.9197 C.ar    1  UNL1        0.0357
      6 C         141.4632  140.0286  164.5029 C.ar    1  UNL1        0.0007
      7 C         139.8800  139.7575  166.5450 C.3     1  UNL1        0.1580
      8 C         138.6351  139.0781  167.0336 C.3     1  UNL1        0.2351
      9 O         138.0998  138.2321  165.9165 O.2     1  UNL1       -0.4478
     10 C         139.0139  138.3886  164.7375 C.2     1  UNL1        0.2770
     11 N         138.8555  137.7199  163.4043 N.pl3   1  UNL1       -0.3133
     12 N         140.1141  139.3313  165.1259 N.2     1  UNL1       -0.2202
     13 C         139.5183  140.0921  167.9617 C.3     1  UNL1        0.1141
     14 C         139.8591  140.2611  167.7873 C.3     1  UNL1        0.1501
     15 O         139.5009  140.0834  167.9707 O.3     1  UNL1       -0.3532
     16 C         139.8591  140.2611  167.7873 C.3     1  UNL1        0.1501
     17 C         140.3781  141.0324  168.7532 C.3     1  UNL1        0.1395
     18 C         139.2727  140.6378  169.6872 C.3     1  UNL1        0.0404
     19 C         139.8666  141.5056  170.7569 C.3     1  UNL1        0.0072
     20 C         140.9720  141.9002  169.8229 C.3     1  UNL1        0.0404
     21 O         141.5997  141.6381  168.1279 O.3     1  UNL1       -0.4826
     22 H         138.0960  137.1143  163.2444 H       1  UNL1        0.1466
     23 H         139.5112  137.8866  162.6890 H       1  UNL1        0.1466
     24 C         144.8218  141.4590  156.3693 C.3     1  UNL1        0.0538
     25 C         144.4066  141.0202  157.7423 C.ar    1  UNL1        0.0785
     26 C         144.1591  141.9186  158.9178 C.ar    1  UNL1        0.0962
     27 N         143.7656  141.0596  160.0828 N.ar    1  UNL1       -0.2878
     28 C         143.4039  141.3943  161.4996 C.ar    1  UNL1        0.0814
     29 C         143.0465  140.2997  162.4609 C.ar    1  UNL1        0.0177
     30 C         143.0508  138.8705  162.0055 C.ar    1  UNL1        0.0046
     31 C         143.4125  138.5359  160.5887 C.ar    1  UNL1        0.0374
     32 C         143.7699  139.6305  159.6274 C.ar    1  UNL1        0.1474
     33 N         144.1661  139.6061  158.1809 N.ar    1  UNL1       -0.2307
@<TRIPOS>BOND
     1    24    25    1
     2    25    26   ar
     3    26    27   ar
     4    27    28   ar
     5    28    29   ar
     6    29     1    1
     7     1     2   ar
     8     2     3   ar
     9     3     4   ar
    10     4     5   ar
    11     5     6   ar
    12     5     7    1
    13     7     8    1
    14     8     9    1
    15     9    10    1
    16    10    11    1
    17    10    12    2
    18     7    13    1
    19    13    14    1
    20    14    15    1
    21    15    16    1
    22    13    17    1
    23    17    18    1
    24    18    19    1
    25    19    20    1
    26    17    21    1
    27    29    30   ar
    28    30    31   ar
    29    31    32   ar
    30    32    33   ar
    31    33    25   ar
    32    32    27   ar
    33     6     1   ar
    34    12     7    1
    35    16    13    1
    36    20    17    1
    37    21     4    1
    38    11    22    1
    39    11    23    1
@<TRIPOS>MOLECULE
*****
 33 39 0 0 0
SMALL
GASTEIGER

@<TRIPOS>ATOM
      1 C         141.9475  143.2938  163.9640 C.ar    1  UNL1        0.0014
      2 C         143.2455  143.6068  164.6477 C.ar    1  UNL1        0.0031
      3 C         143.5591  142.9918  165.9793 C.ar    1  UNL1        0.0366
      4 C         142.5748  142.0638  166.6274 C.ar    1  UNL1        0.1360
      5 C         141.2769  141.7508  165.9438 C.ar    1  UNL1        0.0357
      6 C         140.9632  142.3658  164.6121 C.ar    1  UNL1        0.0007
      7 C         140.2926  140.8228  166.5919 C.3     1  UNL1        0.1580
      8 C         139.2164  139.9181  167.1147 C.3     1  UNL1        0.2351
      9 O         138.1016  139.8957  166.1113 O.2     1  UNL1       -0.4478
     10 C         138.4887  140.7866  164.9683 C.2     1  UNL1        0.2770
     11 N         137.6663  141.0570  163.7435 N.pl3   1  UNL1       -0.3133
     12 N         139.8429  141.3596  165.2653 N.2     1  UNL1       -0.2202
     13 C         140.6062  140.2078  167.9235 C.3     1  UNL1        0.1141
     14 C         140.8808  140.4667  167.7427 C.3     1  UNL1        0.1501
     15 O         140.5922  140.1946  167.9328 O.3     1  UNL1       -0.3532
     16 C         140.8808  140.4667  167.7427 C.3     1  UNL1        0.1501
     17 C         141.9042  140.5208  168.6071 C.3     1  UNL1        0.1395
     18 C         141.1943  139.5793  169.5343 C.3     1  UNL1        0.0404
     19 C         142.3478  139.6510  170.4905 C.3     1  UNL1        0.0072
     20 C         143.0577  140.5926  169.5633 C.3     1  UNL1        0.0404
     21 O         142.8885  141.4488  167.9591 O.3     1  UNL1       -0.4826
     22 H         136.7847  140.6315  163.6387 H       1  UNL1        0.1466
     23 H         138.0081  141.6600  163.0443 H       1  UNL1        0.1466
     24 C         142.1423  144.8375  156.2698 C.3     1  UNL1        0.0538
     25 C         141.9009  144.7454  157.7473 C.ar    1  UNL1        0.0785
     26 C         142.6048  143.8252  158.7001 C.ar    1  UNL1        0.0962
     27 N         142.0520  144.0684  160.0731 N.ar    1  UNL1       -0.2878
     28 C         142.3657  143.4534  161.4048 C.ar    1  UNL1        0.0814
     29 C         141.6339  143.9089  162.6324 C.ar    1  UNL1        0.0177
     30 C         140.5883  144.9794  162.5282 C.ar    1  UNL1        0.0046
     31 C         140.2746  145.5944  161.1966 C.ar    1  UNL1        0.0374
     32 C         141.0065  145.1389  159.9690 C.ar    1  UNL1        0.1474
     33 N         140.9131  145.5573  158.5316 N.ar    1  UNL1       -0.2307
@<TRIPOS>BOND
     1    24    25    1
     2    25    26   ar
     3    26    27   ar
     4    27    28   ar
     5    28    29   ar
     6    29     1    1
     7     1     2   ar
     8     2     3   ar
     9     3     4   ar
    10     4     5   ar
    11     5     6   ar
    12     5     7    1
    13     7     8    1
    14     8     9    1
    15     9    10    1
    16    10    11    1
    17    10    12    2
    18     7    13    1
    19    13    14    1
    20    14    15    1
    21    15    16    1
    22    13    17    1
    23    17    18    1
    24    18    19    1
    25    19    20    1
    26    17    21    1
    27    29    30   ar
    28    30    31   ar
    29    31    32   ar
    30    32    33   ar
    31    33    25   ar
    32    32    27   ar
    33     6     1   ar
    34    12     7    1
    35    16    13    1
    36    20    17    1
    37    21     4    1
    38    11    22    1
    39    11    23    1
@<TRIPOS>MOLECULE
*****
 33 39 0 0 0
SMALL
GASTEIGER

@<TRIPOS>ATOM
      1 C         139.1160  140.0649  164.4537 C.ar    1  UNL1        0.0014
      2 C         138.2863  139.3355  165.4685 C.ar    1  UNL1        0.0031
      3 C         138.6912  139.3420  166.9128 C.ar    1  UNL1        0.0366
      4 C         139.9258  140.0777  167.3423 C.ar    1  UNL1        0.1360
      5 C         140.7555  140.8070  166.3276 C.ar    1  UNL1        0.0357
      6 C         140.3506  140.8006  164.8832 C.ar    1  UNL1        0.0007
      7 C         141.9900  141.5428  166.7571 C.3     1  UNL1        0.1580
      8 C         143.2435  142.3182  167.0359 C.3     1  UNL1        0.2351
      9 O         143.7401  142.8794  165.7365 O.2     1  UNL1       -0.4478
     10 C         142.7936  142.4509  164.6546 C.2     1  UNL1        0.2770
     11 N         142.9084  142.7891  163.1978 N.pl3   1  UNL1       -0.3133
     12 N         141.7119  141.6248  165.2854 N.2     1  UNL1       -0.2202
     13 C         142.3950  141.5492  168.2014 C.3     1  UNL1        0.1141
     14 C         142.0505  141.3439  168.0816 C.3     1  UNL1        0.1501
     15 O         142.4126  141.5597  168.2075 O.3     1  UNL1       -0.3532
     16 C         142.0505  141.3439  168.0816 C.3     1  UNL1        0.1501
     17 C         141.5653  140.8199  169.2161 C.3     1  UNL1        0.1395
     18 C         142.6943  141.4225  169.9986 C.3     1  UNL1        0.0404
     19 C         142.1379  140.8290  171.2588 C.3     1  UNL1        0.0072
     20 C         141.0089  140.2263  170.4763 C.3     1  UNL1        0.0404
     21 O         140.3307  140.0841  168.7866 O.3     1  UNL1       -0.4826
     22 H         143.6585  143.3408  162.8782 H       1  UNL1        0.1466
     23 H         142.2336  142.4594  162.5613 H       1  UNL1        0.1466
     24 C         137.9456  142.4343  157.0619 C.3     1  UNL1        0.0538
     25 C         138.0515  141.7347  158.3845 C.ar    1  UNL1        0.0785
     26 C         138.6206  142.3143  159.6456 C.ar    1  UNL1        0.0962
     27 N         138.5277  141.2703  160.7186 N.ar    1  UNL1       -0.2878
     28 C         138.9326  141.2768  162.1630 C.ar    1  UNL1        0.0814
     29 C         138.7111  140.0584  163.0094 C.ar    1  UNL1        0.0177
     30 C         138.0846  138.8336  162.4116 C.ar    1  UNL1        0.0046
     31 C         137.6797  138.8272  160.9673 C.ar    1  UNL1        0.0374
     32 C         137.9012  140.0455  160.1208 C.ar    1  UNL1        0.1474
     33 N         137.6069  140.3325  158.6782 N.ar    1  UNL1       -0.2307
@<TRIPOS>BOND
     1    24    25    1
     2    25    26   ar
     3    26    27   ar
     4    27    28   ar
     5    28    29   ar
     6    29     1    1
     7     1     2   ar
     8     2     3   ar
     9     3     4   ar
    10     4     5   ar
    11     5     6   ar
    12     5     7    1
    13     7     8    1
    14     8     9    1
    15     9    10    1
    16    10    11    1
    17    10    12    2
    18     7    13    1
    19    13    14    1
    20    14    15    1
    21    15    16    1
    22    13    17    1
    23    17    18    1
    24    18    19    1
    25    19    20    1
    26    17    21    1
    27    29    30   ar
    28    30    31   ar
    29    31    32   ar
    30    32    33   ar
    31    33    25   ar
    32    32    27   ar
    33     6     1   ar
    34    12     7    1
    35    16    13    1
    36    20    17    1
    37    21     4    1
    38    11    22    1
    39    11    23    1
@<TRIPOS>MOLECULE
*****
 33 39 0 0 0
SMALL
GASTEIGER

@<TRIPOS>ATOM
      1 C         142.8900  141.6315  163.1104 C.ar    1  UNL1        0.0014
      2 C         143.8074  141.1594  162.0217 C.ar    1  UNL1        0.0031
      3 C         143.7789  141.8227  160.6766 C.ar    1  UNL1        0.0366
      4 C         142.8329  142.9582  160.4203 C.ar    1  UNL1        0.1360
      5 C         141.9155  143.4304  161.5090 C.ar    1  UNL1        0.0357
      6 C         141.9440  142.7671  162.8541 C.ar    1  UNL1        0.0007
      7 C         140.9695  144.5659  161.2527 C.3     1  UNL1        0.1580
      8 C         139.9750  145.6837  161.1447 C.3     1  UNL1        0.2351
      9 O         139.2763  145.8118  162.4659 O.2     1  UNL1       -0.4478
     10 C         139.8389  144.7733  163.3904 C.2     1  UNL1        0.2770
     11 N         139.4275  144.5449  164.8146 N.pl3   1  UNL1       -0.3133
     12 N         140.8854  144.0032  162.6407 N.2     1  UNL1       -0.2202
     13 C         140.9409  145.2292  159.9077 C.3     1  UNL1        0.1141
     14 C         141.2048  144.9124  159.9792 C.3     1  UNL1        0.1501
     15 O         140.9274  145.2454  159.9040 O.3     1  UNL1       -0.3532
     16 C         141.2048  144.9124  159.9792 C.3     1  UNL1        0.1501
     17 C         141.8583  144.7570  158.8190 C.3     1  UNL1        0.1395
     18 C         141.0774  145.8824  158.2076 C.3     1  UNL1        0.0404
     19 C         141.8179  145.6952  156.9167 C.3     1  UNL1        0.0072
     20 C         142.5988  144.5698  157.5280 C.3     1  UNL1        0.0404
     21 O         142.8043  143.6215  159.0753 O.3     1  UNL1       -0.4826
     22 H         138.7272  145.1052  165.2206 H       1  UNL1        0.1466
     23 H         139.8577  143.8345  165.3434 H       1  UNL1        0.1466
     24 C         142.4545  140.5749  170.8768 C.3     1  UNL1        0.0538
     25 C         142.5992  140.4956  169.3859 C.ar    1  UNL1        0.0785
     26 C         142.4352  141.6335  168.4224 C.ar    1  UNL1        0.0962
     27 N         142.6680  141.1056  167.0378 N.ar    1  UNL1       -0.2878
     28 C         142.6394  141.7690  165.6927 C.ar    1  UNL1        0.0814
     29 C         142.9186  140.9682  164.4555 C.ar    1  UNL1        0.0177
     30 C         143.2263  139.5040  164.5633 C.ar    1  UNL1        0.0046
     31 C         143.2549  138.8407  165.9083 C.ar    1  UNL1        0.0374
     32 C         142.9757  139.6415  167.1456 C.ar    1  UNL1        0.1474
     33 N         142.9332  139.2645  168.5968 N.ar    1  UNL1       -0.2307
@<TRIPOS>BOND
     1    24    25    1
     2    25    26   ar
     3    26    27   ar
     4    27    28   ar
     5    28    29   ar
     6    29     1    1
     7     1     2   ar
     8     2     3   ar
     9     3     4   ar
    10     4     5   ar
    11     5     6   ar
    12     5     7    1
    13     7     8    1
    14     8     9    1
    15     9    10    1
    16    10    11    1
    17    10    12    2
    18     7    13    1
    19    13    14    1
    20    14    15    1
    21    15    16    1
    22    13    17    1
    23    17    18    1
    24    18    19    1
    25    19    20    1
    26    17    21    1
    27    29    30   ar
    28    30    31   ar
    29    31    32   ar
    30    32    33   ar
    31    33    25   ar
    32    32    27   ar
    33     6     1   ar
    34    12     7    1
    35    16    13    1
    36    20    17    1
    37    21     4    1
    38    11    22    1
    39    11    23    1
@<TRIPOS>MOLECULE
*****
 33 39 0 0 0
SMALL
GASTEIGER

@<TRIPOS>ATOM
      1 C         142.3348  142.3523  164.1897 C.ar    1  UNL1        0.0014
      2 C         143.3415  142.8504  165.1841 C.ar    1  UNL1        0.0031
      3 C         143.1699  142.5444  166.6424 C.ar    1  UNL1        0.0366
      4 C         141.9917  141.7403  167.1065 C.ar    1  UNL1        0.1360
      5 C         140.9851  141.2422  166.1122 C.ar    1  UNL1        0.0357
      6 C         141.1567  141.5482  164.6537 C.ar    1  UNL1        0.0007
      7 C         139.8069  140.4381  166.5762 C.3     1  UNL1        0.1580
      8 C         138.5848  139.6269  166.8897 C.3     1  UNL1        0.2351
      9 O         137.8683  139.3512  165.6010 O.2     1  UNL1       -0.4478
     10 C         138.6475  139.9921  164.4911 C.2     1  UNL1        0.2770
     11 N         138.2912  139.9659  163.0343 N.pl3   1  UNL1       -0.3133
     12 N         139.8457  140.6639  165.0938 N.2     1  UNL1       -0.2202
     13 C         139.6354  140.1321  168.0346 C.3     1  UNL1        0.1141
     14 C         139.9641  140.3565  167.9051 C.3     1  UNL1        0.1501
     15 O         139.6185  140.1206  168.0412 O.3     1  UNL1       -0.3532
     16 C         139.9641  140.3565  167.9051 C.3     1  UNL1        0.1501
     17 C         140.6419  140.6302  169.0289 C.3     1  UNL1        0.1395
     18 C         139.6287  139.8822  169.8437 C.3     1  UNL1        0.0404
     19 C         140.3993  140.1974  171.0915 C.3     1  UNL1        0.0072
     20 C         141.4125  140.9454  170.2766 C.3     1  UNL1        0.0404
     21 O         141.8201  141.4343  168.5648 O.3     1  UNL1       -0.4826
     22 H         137.4797  139.4961  162.7344 H       1  UNL1        0.1466
     23 H         138.8690  140.4184  162.3781 H       1  UNL1        0.1466
     24 C         141.5057  145.7805  157.1766 C.3     1  UNL1        0.0538
     25 C         141.8500  144.9534  158.3797 C.ar    1  UNL1        0.0785
     26 C         141.2923  145.1311  159.7608 C.ar    1  UNL1        0.0962
     27 N         141.9101  144.0909  160.6475 N.ar    1  UNL1       -0.2878
     28 C         141.7385  143.7849  162.1059 C.ar    1  UNL1        0.0814
     29 C         142.5064  142.6584  162.7313 C.ar    1  UNL1        0.0177
     30 C         143.4460  141.8378  161.8982 C.ar    1  UNL1        0.0046
     31 C         143.6176  142.1438  160.4399 C.ar    1  UNL1        0.0374
     32 C         142.8497  143.2704  159.8145 C.ar    1  UNL1        0.1474
     33 N         142.8125  143.8034  158.4129 N.ar    1  UNL1       -0.2307
@<TRIPOS>BOND
     1    24    25    1
     2    25    26   ar
     3    26    27   ar
     4    27    28   ar
     5    28    29   ar
     6    29     1    1
     7     1     2   ar
     8     2     3   ar
     9     3     4   ar
    10     4     5   ar
    11     5     6   ar
    12     5     7    1
    13     7     8    1
    14     8     9    1
    15     9    10    1
    16    10    11    1
    17    10    12    2
    18     7    13    1
    19    13    14    1
    20    14    15    1
    21    15    16    1
    22    13    17    1
    23    17    18    1
    24    18    19    1
    25    19    20    1
    26    17    21    1
    27    29    30   ar
    28    30    31   ar
    29    31    32   ar
    30    32    33   ar
    31    33    25   ar
    32    32    27   ar
    33     6     1   ar
    34    12     7    1
    35    16    13    1
    36    20    17    1
    37    21     4    1
    38    11    22    1
    39    11    23    1
@<TRIPOS>MOLECULE
*****
 33 39 0 0 0
SMALL
GASTEIGER

@<TRIPOS>ATOM
      1 C         138.7608  140.5859  163.6235 C.ar    1  UNL1        0.0014
      2 C         138.1655  139.5186  162.7536 C.ar    1  UNL1        0.0031
      3 C         138.0472  139.7363  161.2742 C.ar    1  UNL1        0.0366
      4 C         138.5241  141.0211  160.6647 C.ar    1  UNL1        0.1360
      5 C         139.1194  142.0884  161.5344 C.ar    1  UNL1        0.0357
      6 C         139.2378  141.8708  163.0139 C.ar    1  UNL1        0.0007
      7 C         139.5963  143.3733  160.9248 C.3     1  UNL1        0.1580
      8 C         140.1137  144.7024  160.4603 C.3     1  UNL1        0.2351
      9 O         140.6159  145.4495  161.6603 O.2     1  UNL1       -0.4478
     10 C         140.4089  144.5820  162.8664 C.2     1  UNL1        0.2770
     11 N         140.7688  144.9355  164.2789 N.pl3   1  UNL1       -0.3133
     12 N         139.7788  143.2989  162.4119 N.2     1  UNL1       -0.2202
     13 C         139.4780  143.5909  159.4455 C.3     1  UNL1        0.1141
     14 C         139.3449  143.2324  159.6155 C.3     1  UNL1        0.1501
     15 O         139.4848  143.6093  159.4368 O.3     1  UNL1       -0.3532
     16 C         139.3449  143.2324  159.6155 C.3     1  UNL1        0.1501
     17 C         138.8827  142.5237  158.5757 C.3     1  UNL1        0.1395
     18 C         139.2367  143.6378  157.6358 C.3     1  UNL1        0.0404
     19 C         138.7153  142.8314  156.4834 C.3     1  UNL1        0.0072
     20 C         138.3613  141.7173  157.4233 C.3     1  UNL1        0.0404
     21 O         138.4058  141.2388  159.1853 O.3     1  UNL1       -0.4826
     22 H         141.1810  145.8070  164.4785 H       1  UNL1        0.1466
     23 H         140.5928  144.2961  165.0065 H       1  UNL1        0.1466
     24 C         140.9142  141.5174  171.1146 C.3     1  UNL1        0.0538
     25 C         140.3513  141.1160  169.7835 C.ar    1  UNL1        0.0785
     26 C         140.6178  141.7947  168.4726 C.ar    1  UNL1        0.0962
     27 N         139.8542  141.0635  167.4085 N.ar    1  UNL1       -0.2878
     28 C         139.7359  141.2812  165.9291 C.ar    1  UNL1        0.0814
     29 C         138.8792  140.3683  165.1029 C.ar    1  UNL1        0.0177
     30 C         138.1408  139.2377  165.7561 C.ar    1  UNL1        0.0046
     31 C         138.2592  139.0201  167.2354 C.ar    1  UNL1        0.0374
     32 C         139.1159  139.9330  168.0617 C.ar    1  UNL1        0.1474
     33 N         139.4231  139.9654  169.5295 N.ar    1  UNL1       -0.2307
@<TRIPOS>BOND
     1    24    25    1
     2    25    26   ar
     3    26    27   ar
     4    27    28   ar
     5    28    29   ar
     6    29     1    1
     7     1     2   ar
     8     2     3   ar
     9     3     4   ar
    10     4     5   ar
    11     5     6   ar
    12     5     7    1
    13     7     8    1
    14     8     9    1
    15     9    10    1
    16    10    11    1
    17    10    12    2
    18     7    13    1
    19    13    14    1
    20    14    15    1
    21    15    16    1
    22    13    17    1
    23    17    18    1
    24    18    19    1
    25    19    20    1
    26    17    21    1
    27    29    30   ar
    28    30    31   ar
    29    31    32   ar
    30    32    33   ar
    31    33    25   ar
    32    32    27   ar
    33     6     1   ar
    34    12     7    1
    35    16    13    1
    36    20    17    1
    37    21     4    1
    38    11    22    1
    39    11    23    1
@<TRIPOS>MOLECULE
*****
 33 39 0 0 0
SMALL
GASTEIGER

@<TRIPOS>ATOM
      1 C         139.4607  141.5373  163.6399 C.ar    1  UNL1        0.0014
      2 C         139.0255  142.8074  164.3091 C.ar    1  UNL1        0.0031
      3 C         139.5748  143.1714  165.6566 C.ar    1  UNL1        0.0366
      4 C         140.5592  142.2656  166.3349 C.ar    1  UNL1        0.1360
      5 C         140.9944  140.9956  165.6659 C.ar    1  UNL1        0.0357
      6 C         140.4451  140.6314  164.3183 C.ar    1  UNL1        0.0007
      7 C         141.9789  140.0897  166.3443 C.3     1  UNL1        0.1580
      8 C         142.9510  139.0901  166.8972 C.3     1  UNL1        0.2351
      9 O         143.0913  137.9789  165.8994 O.2     1  UNL1       -0.4478
     10 C         142.2059  138.2916  164.7298 C.2     1  UNL1        0.2770
     11 N         142.0375  137.4481  163.5010 N.pl3   1  UNL1       -0.3133
     12 N         141.5183  139.5962  165.0046 N.2     1  UNL1       -0.2202
     13 C         142.5281  140.4538  167.6917 C.3     1  UNL1        0.1141
     14 C         142.2534  140.7065  167.5025 C.3     1  UNL1        0.1501
     15 O         142.5422  140.4408  167.7014 O.3     1  UNL1       -0.3532
     16 C         142.2534  140.7065  167.5025 C.3     1  UNL1        0.1501
     17 C         142.0929  141.7238  168.3608 C.3     1  UNL1        0.1395
     18 C         143.0609  141.0930  169.3175 C.3     1  UNL1        0.0404
     19 C         142.8697  142.2387  170.2665 C.3     1  UNL1        0.0072
     20 C         141.9017  142.8695  169.3099 C.3     1  UNL1        0.0404
     21 O         141.1085  142.6296  167.6824 O.3     1  UNL1       -0.4826
     22 H         142.5348  136.6031  163.4121 H       1  UNL1        0.1466
     23 H         141.4296  137.7394  162.7835 H       1  UNL1        0.1466
     24 C         137.5708  141.9610  156.0327 C.3     1  UNL1        0.0538
     25 C         137.8032  141.6227  157.4754 C.ar    1  UNL1        0.0785
     26 C         138.5029  142.4871  158.4820 C.ar    1  UNL1        0.0962
     27 N         138.5088  141.7592  159.7935 N.ar    1  UNL1       -0.2878
     28 C         139.0581  142.1233  161.1411 C.ar    1  UNL1        0.0814
     29 C         138.9114  141.1732  162.2925 C.ar    1  UNL1        0.0177
     30 C         138.2154  139.8590  162.0964 C.ar    1  UNL1        0.0046
     31 C         137.6662  139.4949  160.7489 C.ar    1  UNL1        0.0374
     32 C         137.8129  140.4450  159.5975 C.ar    1  UNL1        0.1474
     33 N         137.3768  140.3607  158.1648 N.ar    1  UNL1       -0.2307
@<TRIPOS>BOND
     1    24    25    1
     2    25    26   ar
     3    26    27   ar
     4    27    28   ar
     5    28    29   ar
     6    29     1    1
     7     1     2   ar
     8     2     3   ar
     9     3     4   ar
    10     4     5   ar
    11     5     6   ar
    12     5     7    1
    13     7     8    1
    14     8     9    1
    15     9    10    1
    16    10    11    1
    17    10    12    2
    18     7    13    1
    19    13    14    1
    20    14    15    1
    21    15    16    1
    22    13    17    1
    23    17    18    1
    24    18    19    1
    25    19    20    1
    26    17    21    1
    27    29    30   ar
    28    30    31   ar
    29    31    32   ar
    30    32    33   ar
    31    33    25   ar
    32    32    27   ar
    33     6     1   ar
    34    12     7    1
    35    16    13    1
    36    20    17    1
    37    21     4    1
    38    11    22    1
    39    11    23    1
@<TRIPOS>MOLECULE
*****
 33 39 0 0 0
SMALL
GASTEIGER

@<TRIPOS>ATOM
      1 C         139.4588  138.9960  163.5418 C.ar    1  UNL1        0.0014
      2 C         138.1772  138.8457  162.7770 C.ar    1  UNL1        0.0031
      3 C         138.2103  138.6308  161.2928 C.ar    1  UNL1        0.0366
      4 C         139.5250  138.5662  160.5735 C.ar    1  UNL1        0.1360
      5 C         140.8066  138.7164  161.3383 C.ar    1  UNL1        0.0357
      6 C         140.7735  138.9313  162.8225 C.ar    1  UNL1        0.0007
      7 C         142.1213  138.6518  160.6189 C.3     1  UNL1        0.1580
      8 C         143.5041  138.6095  160.0393 C.3     1  UNL1        0.2351
      9 O         144.4826  138.8023  161.1598 O.2     1  UNL1       -0.4478
     10 C         143.7045  138.9637  162.4320 C.2     1  UNL1        0.2770
     11 N         144.2839  139.1802  163.7985 N.pl3   1  UNL1       -0.3133
     12 N         142.2451  138.8707  162.0978 N.2     1  UNL1       -0.2202
     13 C         142.1544  138.4369  159.1348 C.3     1  UNL1        0.1141
     14 C         141.7876  138.4549  159.3355 C.3     1  UNL1        0.1501
     15 O         142.1731  138.4360  159.1246 O.3     1  UNL1       -0.3532
     16 C         141.7876  138.4549  159.3355 C.3     1  UNL1        0.1501
     17 C         140.8728  138.2866  158.3700 C.3     1  UNL1        0.1395
     18 C         141.9561  138.1696  157.3391 C.3     1  UNL1        0.0404
     19 C         140.9196  137.9827  156.2710 C.3     1  UNL1        0.0072
     20 C         139.8363  138.0997  157.3020 C.3     1  UNL1        0.0404
     21 O         139.5581  138.3513  159.0894 O.3     1  UNL1       -0.4826
     22 H         145.2600  139.2272  163.9174 H       1  UNL1        0.1466
     23 H         143.6880  139.2752  164.5764 H       1  UNL1        0.1466
     24 C         141.7328  140.8176  170.8311 C.3     1  UNL1        0.0538
     25 C         141.0455  140.4088  169.5620 C.ar    1  UNL1        0.0785
     26 C         141.6582  140.3936  168.1929 C.ar    1  UNL1        0.0962
     27 N         140.6162  139.9189  167.2241 N.ar    1  UNL1       -0.2878
     28 C         140.6493  139.7040  165.7399 C.ar    1  UNL1        0.0814
     29 C         139.4257  139.2109  165.0260 C.ar    1  UNL1        0.0177
     30 C         138.1690  138.9327  165.7962 C.ar    1  UNL1        0.0046
     31 C         138.1359  139.1476  167.2804 C.ar    1  UNL1        0.0374
     32 C         139.3595  139.6407  167.9943 C.ar    1  UNL1        0.1474
     33 N         139.6248  139.9435  169.4392 N.ar    1  UNL1       -0.2307
@<TRIPOS>BOND
     1    24    25    1
     2    25    26   ar
     3    26    27   ar
     4    27    28   ar
     5    28    29   ar
     6    29     1    1
     7     1     2   ar
     8     2     3   ar
     9     3     4   ar
    10     4     5   ar
    11     5     6   ar
    12     5     7    1
    13     7     8    1
    14     8     9    1
    15     9    10    1
    16    10    11    1
    17    10    12    2
    18     7    13    1
    19    13    14    1
    20    14    15    1
    21    15    16    1
    22    13    17    1
    23    17    18    1
    24    18    19    1
    25    19    20    1
    26    17    21    1
    27    29    30   ar
    28    30    31   ar
    29    31    32   ar
    30    32    33   ar
    31    33    25   ar
    32    32    27   ar
    33     6     1   ar
    34    12     7    1
    35    16    13    1
    36    20    17    1
    37    21     4    1
    38    11    22    1
    39    11    23    1
