@<TRIPOS>MOLECULE
*****
 20 22 0 0 0
SMALL
GASTEIGER

@<TRIPOS>ATOM
      1 C         141.5295  138.0945  164.6646 C.ar    1  UNL1        0.0794
      2 C         141.8002  138.9726  165.8502 C.ar    1  UNL1        0.0999
      3 N         140.4925  139.5439  166.3122 N.ar    1  UNL1       -0.2485
      4 N         139.4135  139.0189  165.4121 N.ar    1  UNL1       -0.1316
      5 C         140.0544  138.1231  164.3938 C.ar    1  UNL1        0.2434
      6 C         140.2979  140.4765  167.4708 C.3     1  UNL1        0.1053
      7 C         139.5767  140.0064  168.6991 C.3     1  UNL1        0.0244
      8 C         139.3821  140.9390  169.8577 C.3     1  UNL1        0.0020
      9 C         139.9087  142.3418  169.7880 C.3     1  UNL1        0.0001
     10 C         140.6300  142.8119  168.5597 C.3     1  UNL1        0.0020
     11 C         140.8245  141.8793  167.4011 C.3     1  UNL1        0.0244
     12 O         139.3448  137.3854  163.2973 O.3     1  UNL1       -0.4577
     13 C         139.0204  138.0849  162.0107 C.3     1  UNL1        0.2244
     14 C         137.7768  138.9167  161.9021 C.3     1  UNL1        0.1202
     15 N         137.8798  140.4093  161.7952 N.3     1  UNL1       -0.2653
     16 C         138.3768  141.0379  160.5272 C.3     1  UNL1        0.1047
     17 C         138.4798  142.5306  160.4203 C.3     1  UNL1        0.1595
     18 O         138.0858  143.3945  161.5814 O.3     1  UNL1       -0.3508
     19 C         137.5888  142.7660  162.8495 C.3     1  UNL1        0.1595
     20 C         137.4858  141.2733  162.9563 C.3     1  UNL1        0.1047
@<TRIPOS>BOND
     1     1     2   ar
     2     2     3   ar
     3     3     6    1
     4     6     7    1
     5     7     8    1
     6     8     9    1
     7     9    10    1
     8    10    11    1
     9     3     4   ar
    10     4     5   ar
    11     5    12    1
    12    12    13    1
    13    13    14    1
    14    14    15    1
    15    15    16    1
    16    16    17    1
    17    17    18    1
    18    18    19    1
    19    19    20    1
    20     5     1   ar
    21    20    15    1
    22    11     6    1
@<TRIPOS>MOLECULE
*****
 20 22 0 0 0
SMALL
GASTEIGER

@<TRIPOS>ATOM
      1 C         137.8941  143.6531  162.9758 C.ar    1  UNL1        0.0794
      2 C         137.4772  142.2376  163.2454 C.ar    1  UNL1        0.0999
      3 N         138.5933  141.5578  163.9817 N.ar    1  UNL1       -0.2485
      4 N         139.7001  142.5531  164.1672 N.ar    1  UNL1       -0.1316
      5 C         139.2680  143.8480  163.5456 C.ar    1  UNL1        0.2434
      6 C         138.6012  140.1328  164.4503 C.3     1  UNL1        0.1053
      7 C         138.1388  139.7968  165.8370 C.3     1  UNL1        0.0244
      8 C         138.1467  138.3719  166.3055 C.3     1  UNL1        0.0020
      9 C         138.6170  137.2830  165.3872 C.3     1  UNL1        0.0001
     10 C         139.0793  137.6191  164.0004 C.3     1  UNL1        0.0020
     11 C         139.0714  139.0440  163.5320 C.3     1  UNL1        0.0244
     12 O         140.0691  145.1154  163.5014 O.3     1  UNL1       -0.4577
     13 C         141.4552  145.1069  162.9281 C.3     1  UNL1        0.2244
     14 C         142.6273  144.7774  163.8043 C.3     1  UNL1        0.1202
     15 N         143.6286  143.7515  163.3629 N.3     1  UNL1       -0.2653
     16 C         144.4219  142.9904  164.3834 C.3     1  UNL1        0.1047
     17 C         145.4233  141.9644  163.9420 C.3     1  UNL1        0.1595
     18 O         145.6312  141.6996  162.4803 O.3     1  UNL1       -0.3508
     19 C         144.8379  142.4608  161.4599 C.3     1  UNL1        0.1595
     20 C         143.8366  143.4867  161.9013 C.3     1  UNL1        0.1047
@<TRIPOS>BOND
     1     1     2   ar
     2     2     3   ar
     3     3     6    1
     4     6     7    1
     5     7     8    1
     6     8     9    1
     7     9    10    1
     8    10    11    1
     9     3     4   ar
    10     4     5   ar
    11     5    12    1
    12    12    13    1
    13    13    14    1
    14    14    15    1
    15    15    16    1
    16    16    17    1
    17    17    18    1
    18    18    19    1
    19    19    20    1
    20     5     1   ar
    21    20    15    1
    22    11     6    1
@<TRIPOS>MOLECULE
*****
 20 22 0 0 0
SMALL
GASTEIGER

@<TRIPOS>ATOM
      1 C         137.7317  143.4164  164.1518 C.ar    1  UNL1        0.0794
      2 C         138.9954  143.9633  164.7467 C.ar    1  UNL1        0.0999
      3 N         140.1351  143.1048  164.2839 N.ar    1  UNL1       -0.2485
      4 N         139.5757  142.0273  163.4030 N.ar    1  UNL1       -0.1316
      5 C         138.0903  142.2198  163.3214 C.ar    1  UNL1        0.2434
      6 C         141.5804  143.2911  164.6396 C.3     1  UNL1        0.1053
      7 C         142.2110  142.4283  165.6922 C.3     1  UNL1        0.0244
      8 C         143.6562  142.6147  166.0478 C.3     1  UNL1        0.0020
      9 C         144.4708  143.6638  165.3509 C.3     1  UNL1        0.0001
     10 C         143.8403  144.5266  164.2983 C.3     1  UNL1        0.0020
     11 C         142.3950  144.3402  163.9427 C.3     1  UNL1        0.0244
     12 O         137.1319  141.3658  162.5455 O.3     1  UNL1       -0.4577
     13 C         137.6436  140.4417  161.4805 C.3     1  UNL1        0.2244
     14 C         137.7512  138.9705  161.7525 C.3     1  UNL1        0.1202
     15 N         138.9226  138.4334  162.5202 N.3     1  UNL1       -0.2653
     16 C         138.8281  138.2579  164.0069 C.3     1  UNL1        0.1047
     17 C         139.9995  137.7208  164.7747 C.3     1  UNL1        0.1595
     18 O         141.2654  137.3593  164.0556 O.3     1  UNL1       -0.3508
     19 C         141.3599  137.5349  162.5690 C.3     1  UNL1        0.1595
     20 C         140.1884  138.0719  161.8013 C.3     1  UNL1        0.1047
@<TRIPOS>BOND
     1     1     2   ar
     2     2     3   ar
     3     3     6    1
     4     6     7    1
     5     7     8    1
     6     8     9    1
     7     9    10    1
     8    10    11    1
     9     3     4   ar
    10     4     5   ar
    11     5    12    1
    12    12    13    1
    13    13    14    1
    14    14    15    1
    15    15    16    1
    16    16    17    1
    17    17    18    1
    18    18    19    1
    19    19    20    1
    20     5     1   ar
    21    20    15    1
    22    11     6    1
@<TRIPOS>MOLECULE
*****
 20 22 0 0 0
SMALL
GASTEIGER

@<TRIPOS>ATOM
      1 C         141.0162  140.4779  168.5673 C.ar    1  UNL1        0.0794
      2 C         142.3278  140.9570  168.0195 C.ar    1  UNL1        0.0999
      3 N         142.2985  140.7849  166.5297 N.ar    1  UNL1       -0.2485
      4 N         140.9689  140.1994  166.1567 N.ar    1  UNL1       -0.1316
      5 C         140.1763  140.0096  167.4160 C.ar    1  UNL1        0.2434
      6 C         143.4048  141.1366  165.5796 C.3     1  UNL1        0.1053
      7 C         143.8546  142.5614  165.4466 C.3     1  UNL1        0.0244
      8 C         144.9609  142.9130  164.4966 C.3     1  UNL1        0.0020
      9 C         145.6173  141.8399  163.6796 C.3     1  UNL1        0.0001
     10 C         145.1675  140.4151  163.8125 C.3     1  UNL1        0.0020
     11 C         144.0612  140.0635  164.7626 C.3     1  UNL1        0.0244
     12 O         138.7877  139.4499  167.5079 O.3     1  UNL1       -0.4577
     13 C         138.0857  138.9782  166.2691 C.3     1  UNL1        0.2244
     14 C         138.4752  137.6750  165.6365 C.3     1  UNL1        0.1202
     15 N         139.2481  137.6668  164.3510 N.3     1  UNL1       -0.2653
     16 C         138.5586  137.9918  163.0592 C.3     1  UNL1        0.1047
     17 C         139.3316  137.9836  161.7736 C.3     1  UNL1        0.1595
     18 O         140.7941  137.6503  161.7801 O.3     1  UNL1       -0.3508
     19 C         141.4836  137.3253  163.0720 C.3     1  UNL1        0.1595
     20 C         140.7106  137.3335  164.3574 C.3     1  UNL1        0.1047
@<TRIPOS>BOND
     1     1     2   ar
     2     2     3   ar
     3     3     6    1
     4     6     7    1
     5     7     8    1
     6     8     9    1
     7     9    10    1
     8    10    11    1
     9     3     4   ar
    10     4     5   ar
    11     5    12    1
    12    12    13    1
    13    13    14    1
    14    14    15    1
    15    15    16    1
    16    16    17    1
    17    17    18    1
    18    18    19    1
    19    19    20    1
    20     5     1   ar
    21    20    15    1
    22    11     6    1
@<TRIPOS>MOLECULE
*****
 20 22 0 0 0
SMALL
GASTEIGER

@<TRIPOS>ATOM
      1 C         139.2609  144.4401  164.6851 C.ar    1  UNL1        0.0794
      2 C         139.3075  143.1137  165.3841 C.ar    1  UNL1        0.0999
      3 N         138.9880  142.0480  164.3780 N.ar    1  UNL1       -0.2485
      4 N         138.7440  142.7157  163.0572 N.ar    1  UNL1       -0.1316
      5 C         138.9126  144.1940  163.2469 C.ar    1  UNL1        0.2434
      6 C         138.9238  140.5734  164.6458 C.3     1  UNL1        0.1053
      7 C         138.3034  140.0679  165.9144 C.3     1  UNL1        0.0244
      8 C         138.2392  138.5934  166.1821 C.3     1  UNL1        0.0020
      9 C         138.7955  137.6245  165.1812 C.3     1  UNL1        0.0001
     10 C         139.4160  138.1300  163.9126 C.3     1  UNL1        0.0020
     11 C         139.4801  139.6045  163.6449 C.3     1  UNL1        0.0244
     12 O         138.7598  145.2424  162.1850 O.3     1  UNL1       -0.4577
     13 C         139.9743  145.9019  161.6019 C.3     1  UNL1        0.2244
     14 C         140.9292  145.1066  160.7618 C.3     1  UNL1        0.1202
     15 N         142.1680  144.5279  161.3786 N.3     1  UNL1       -0.2653
     16 C         142.9581  143.4884  160.6402 C.3     1  UNL1        0.1047
     17 C         144.1970  142.9096  161.2570 C.3     1  UNL1        0.1595
     18 O         144.6455  143.3704  162.6122 O.3     1  UNL1       -0.3508
     19 C         143.8554  144.4099  163.3506 C.3     1  UNL1        0.1595
     20 C         142.6166  144.9886  162.7337 C.3     1  UNL1        0.1047
@<TRIPOS>BOND
     1     1     2   ar
     2     2     3   ar
     3     3     6    1
     4     6     7    1
     5     7     8    1
     6     8     9    1
     7     9    10    1
     8    10    11    1
     9     3     4   ar
    10     4     5   ar
    11     5    12    1
    12    12    13    1
    13    13    14    1
    14    14    15    1
    15    15    16    1
    16    16    17    1
    17    17    18    1
    18    18    19    1
    19    19    20    1
    20     5     1   ar
    21    20    15    1
    22    11     6    1
@<TRIPOS>MOLECULE
*****
 20 22 0 0 0
SMALL
GASTEIGER

@<TRIPOS>ATOM
      1 C         144.9101  139.3054  164.4104 C.ar    1  UNL1        0.0794
      2 C         143.7547  138.7532  165.1914 C.ar    1  UNL1        0.0999
      3 N         142.4948  139.3552  164.6436 N.ar    1  UNL1       -0.2485
      4 N         142.8715  140.2795  163.5239 N.ar    1  UNL1       -0.1316
      5 C         144.3642  140.2488  163.3798 C.ar    1  UNL1        0.2434
      6 C         141.1025  139.0810  165.1300 C.3     1  UNL1        0.1053
      7 C         140.4515  140.0154  166.1062 C.3     1  UNL1        0.0244
      8 C         139.0593  139.7411  166.5925 C.3     1  UNL1        0.0020
      9 C         138.3182  138.5325  166.1027 C.3     1  UNL1        0.0001
     10 C         138.9693  137.5981  165.1265 C.3     1  UNL1        0.0020
     11 C         140.3614  137.8723  164.6402 C.3     1  UNL1        0.0244
     12 O         145.1697  141.0251  162.3805 O.3     1  UNL1       -0.4577
     13 C         144.9922  142.5101  162.2653 C.3     1  UNL1        0.2244
     14 C         144.0707  143.0769  161.2262 C.3     1  UNL1        0.1202
     15 N         142.9373  143.9699  161.6358 N.3     1  UNL1       -0.2653
     16 C         142.8767  144.5117  163.0333 C.3     1  UNL1        0.1047
     17 C         141.7432  145.4047  163.4430 C.3     1  UNL1        0.1595
     18 O         140.6704  145.7559  162.4551 O.3     1  UNL1       -0.3508
     19 C         140.7310  145.2141  161.0577 C.3     1  UNL1        0.1595
     20 C         141.8645  144.3211  160.6481 C.3     1  UNL1        0.1047
@<TRIPOS>BOND
     1     1     2   ar
     2     2     3   ar
     3     3     6    1
     4     6     7    1
     5     7     8    1
     6     8     9    1
     7     9    10    1
     8    10    11    1
     9     3     4   ar
    10     4     5   ar
    11     5    12    1
    12    12    13    1
    13    13    14    1
    14    14    15    1
    15    15    16    1
    16    16    17    1
    17    17    18    1
    18    18    19    1
    19    19    20    1
    20     5     1   ar
    21    20    15    1
    22    11     6    1
@<TRIPOS>MOLECULE
*****
 20 22 0 0 0
SMALL
GASTEIGER

@<TRIPOS>ATOM
      1 C         139.2050  137.8260  164.0110 C.ar    1  UNL1        0.0794
      2 C         138.6438  139.0579  164.6570 C.ar    1  UNL1        0.0999
      3 N         139.3371  140.2489  164.0645 N.ar    1  UNL1       -0.2485
      4 N         140.3267  139.7530  163.0522 N.ar    1  UNL1       -0.1316
      5 C         140.2451  138.2556  163.0191 C.ar    1  UNL1        0.2434
      6 C         139.0849  141.6838  164.4216 C.3     1  UNL1        0.1053
      7 C         137.9990  142.4501  163.7262 C.3     1  UNL1        0.0244
      8 C         137.7469  143.8849  164.0833 C.3     1  UNL1        0.0020
      9 C         138.5807  144.5535  165.1358 C.3     1  UNL1        0.0001
     10 C         139.6665  143.7873  165.8312 C.3     1  UNL1        0.0020
     11 C         139.9187  142.3524  165.4741 C.3     1  UNL1        0.0244
     12 O         141.0605  137.3472  162.1473 O.3     1  UNL1       -0.4577
     13 C         142.1839  137.9060  161.3253 C.3     1  UNL1        0.2244
     14 C         143.5659  137.9902  161.9026 C.3     1  UNL1        0.1202
     15 N         144.1382  139.3223  162.2871 N.3     1  UNL1       -0.2653
     16 C         144.1183  140.4580  161.3075 C.3     1  UNL1        0.1047
     17 C         144.6907  141.7902  161.6920 C.3     1  UNL1        0.1595
     18 O         145.2830  141.9865  163.0561 O.3     1  UNL1       -0.3508
     19 C         145.3028  140.8507  164.0357 C.3     1  UNL1        0.1595
     20 C         144.7304  139.5186  163.6511 C.3     1  UNL1        0.1047
@<TRIPOS>BOND
     1     1     2   ar
     2     2     3   ar
     3     3     6    1
     4     6     7    1
     5     7     8    1
     6     8     9    1
     7     9    10    1
     8    10    11    1
     9     3     4   ar
    10     4     5   ar
    11     5    12    1
    12    12    13    1
    13    13    14    1
    14    14    15    1
    15    15    16    1
    16    16    17    1
    17    17    18    1
    18    18    19    1
    19    19    20    1
    20     5     1   ar
    21    20    15    1
    22    11     6    1
@<TRIPOS>MOLECULE
*****
 20 22 0 0 0
SMALL
GASTEIGER

@<TRIPOS>ATOM
      1 C         140.9306  141.4945  163.7942 C.ar    1  UNL1        0.0794
      2 C         141.8014  141.9716  164.9185 C.ar    1  UNL1        0.0999
      3 N         140.9972  141.9158  166.1835 N.ar    1  UNL1       -0.2485
      4 N         139.6294  141.4042  165.8411 N.ar    1  UNL1       -0.1316
      5 C         139.5882  141.1438  164.3644 C.ar    1  UNL1        0.2434
      6 C         141.4767  142.3035  167.5510 C.3     1  UNL1        0.1053
      7 C         142.8853  141.9982  167.9663 C.3     1  UNL1        0.0244
      8 C         143.3648  142.3859  169.3337 C.3     1  UNL1        0.0020
      9 C         142.4356  143.0790  170.2857 C.3     1  UNL1        0.0001
     10 C         141.0270  143.3843  169.8704 C.3     1  UNL1        0.0020
     11 C         140.5476  142.9966  168.5030 C.3     1  UNL1        0.0244
     12 O         138.4112  140.6240  163.5933 O.3     1  UNL1       -0.4577
     13 C         137.6866  141.5221  162.6350 C.3     1  UNL1        0.2244
     14 C         137.6906  143.0067  162.8493 C.3     1  UNL1        0.1202
     15 N         138.6436  143.8729  162.0803 N.3     1  UNL1       -0.2653
     16 C         139.0164  145.2276  162.6053 C.3     1  UNL1        0.1047
     17 C         139.9695  146.0939  161.8363 C.3     1  UNL1        0.1595
     18 O         140.5496  145.6053  160.5422 O.3     1  UNL1       -0.3508
     19 C         140.1768  144.2506  160.0171 C.3     1  UNL1        0.1595
     20 C         139.2238  143.3844  160.7862 C.3     1  UNL1        0.1047
@<TRIPOS>BOND
     1     1     2   ar
     2     2     3   ar
     3     3     6    1
     4     6     7    1
     5     7     8    1
     6     8     9    1
     7     9    10    1
     8    10    11    1
     9     3     4   ar
    10     4     5   ar
    11     5    12    1
    12    12    13    1
    13    13    14    1
    14    14    15    1
    15    15    16    1
    16    16    17    1
    17    17    18    1
    18    18    19    1
    19    19    20    1
    20     5     1   ar
    21    20    15    1
    22    11     6    1
@<TRIPOS>MOLECULE
*****
 20 22 0 0 0
SMALL
GASTEIGER

@<TRIPOS>ATOM
      1 C         138.9127  138.0721  165.0207 C.ar    1  UNL1        0.0794
      2 C         138.5329  138.9851  166.1486 C.ar    1  UNL1        0.0999
      3 N         139.7820  139.6478  166.6493 N.ar    1  UNL1       -0.2485
      4 N         140.9338  139.1443  165.8308 N.ar    1  UNL1       -0.1316
      5 C         140.3966  138.1705  164.8243 C.ar    1  UNL1        0.2434
      6 C         139.8648  140.6398  167.7714 C.3     1  UNL1        0.1053
      7 C         139.3269  140.2861  169.1263 C.3     1  UNL1        0.0244
      8 C         139.4097  141.2781  170.2483 C.3     1  UNL1        0.0020
      9 C         140.0303  142.6237  170.0156 C.3     1  UNL1        0.0001
     10 C         140.5682  142.9774  168.6607 C.3     1  UNL1        0.0020
     11 C         140.4854  141.9854  167.5387 C.3     1  UNL1        0.0244
     12 O         141.2018  137.4258  163.8010 O.3     1  UNL1       -0.4577
     13 C         142.3971  138.0755  163.1694 C.3     1  UNL1        0.2244
     14 C         142.3232  139.5041  162.7179 C.3     1  UNL1        0.1202
     15 N         143.2576  140.5236  163.2989 N.3     1  UNL1       -0.2653
     16 C         144.7292  140.4360  163.0220 C.3     1  UNL1        0.1047
     17 C         145.6637  141.4555  163.6030 C.3     1  UNL1        0.1595
     18 O         145.1264  142.5625  164.4608 O.3     1  UNL1       -0.3508
     19 C         143.6548  142.6501  164.7377 C.3     1  UNL1        0.1595
     20 C         142.7204  141.6306  164.1567 C.3     1  UNL1        0.1047
@<TRIPOS>BOND
     1     1     2   ar
     2     2     3   ar
     3     3     6    1
     4     6     7    1
     5     7     8    1
     6     8     9    1
     7     9    10    1
     8    10    11    1
     9     3     4   ar
    10     4     5   ar
    11     5    12    1
    12    12    13    1
    13    13    14    1
    14    14    15    1
    15    15    16    1
    16    16    17    1
    17    17    18    1
    18    18    19    1
    19    19    20    1
    20     5     1   ar
    21    20    15    1
    22    11     6    1
