@<TRIPOS>MOLECULE
*****
 34 37 0 0 0
SMALL
GASTEIGER

@<TRIPOS>ATOM
      1 C         143.7125  140.5791  164.9764 C.3     1  UNL1        0.0188
      2 C         142.7758  141.7293  165.1990 C.3     1  UNL1        0.0188
      3 C         141.6111  141.5782  166.1321 C.3     1  UNL1        0.0724
      4 N         141.3831  140.2769  166.8424 N.3     1  UNL1       -0.2691
      5 C         142.3199  139.1267  166.6198 C.3     1  UNL1        0.0724
      6 C         143.4846  139.2778  165.6867 C.3     1  UNL1        0.0188
      7 C         144.8773  140.7303  164.0433 C.3     1  UNL1        0.0721
      8 C         144.1687  141.4687  159.6612 C.3     1  UNL1        0.1687
      9 C         143.9214  140.1080  160.2421 C.3     1  UNL1        0.0609
     10 C         144.1576  139.8618  161.7028 C.3     1  UNL1        0.0758
     11 N         144.6411  140.9764  162.5826 N.3     1  UNL1       -0.2724
     12 C         144.8884  142.3370  162.0017 C.3     1  UNL1        0.0758
     13 C         144.6522  142.5832  160.5410 C.3     1  UNL1        0.0609
     14 O         143.9325  141.7148  158.2005 O.3     1  UNL1       -0.4794
     15 C         143.8940  139.7517  155.9323 C.3     1  UNL1        0.0343
     16 C         145.0605  140.6794  156.1016 C.ar    1  UNL1        0.0143
     17 C         146.2078  140.6255  155.1368 C.ar    1  UNL1        0.0284
     18 C         147.3744  141.5531  155.3062 C.ar    1  UNL1        0.1400
     19 F         148.5217  141.4992  154.3414 F       1  UNL1       -0.2042
     20 C         147.3936  142.5346  156.4403 C.ar    1  UNL1        0.0327
     21 C         146.2464  142.5885  157.4050 C.ar    1  UNL1        0.0389
     22 C         145.0798  141.6609  157.2357 C.ar    1  UNL1        0.1345
     23 C         140.2184  140.1257  167.7755 C.3     1  UNL1        0.0987
     24 C         140.3405  140.5642  169.2047 C.2     1  UNL1        0.0652
     25 O         140.0112  139.6088  170.3132 O.co2   1  UNL1       -0.5478
     26 O         140.7920  141.9583  169.5256 O.co2   1  UNL1       -0.5478
     27 C         138.9315  139.5360  167.2793 C.3     1  UNL1        0.0480
     28 C         138.7308  139.3014  165.8115 C.ar    1  UNL1       -0.0203
     29 C         139.0336  137.9573  165.2184 C.ar    1  UNL1       -0.0019
     30 C         138.8328  137.7227  163.7505 C.ar    1  UNL1        0.0293
     31 C         138.3294  138.8323  162.8757 C.ar    1  UNL1        0.1401
     32 F         138.1286  138.5977  161.4078 F       1  UNL1       -0.2042
     33 C         138.0266  140.1764  163.4687 C.ar    1  UNL1        0.0293
     34 C         138.2273  140.4110  164.9365 C.ar    1  UNL1       -0.0019
@<TRIPOS>UNITY_ATOM_ATTR
25 1
charge -1
@<TRIPOS>BOND
     1    15    16    1
     2    16    17   ar
     3    17    18   ar
     4    18    19    1
     5    18    20   ar
     6    20    21   ar
     7    21    22   ar
     8    22    14    1
     9    14     8    1
    10     8     9    1
    11     9    10    1
    12    10    11    1
    13    11     7    1
    14     7     1    1
    15     1     2    1
    16     2     3    1
    17     3     4    1
    18     4    23    1
    19    23    27    1
    20    27    28    1
    21    28    29   ar
    22    29    30   ar
    23    30    31   ar
    24    31    32    1
    25    31    33   ar
    26    33    34   ar
    27    23    24    1
    28    24    25   ar
    29    24    26   ar
    30     4     5    1
    31     5     6    1
    32    11    12    1
    33    12    13    1
    34    22    16   ar
    35    13     8    1
    36     6     1    1
    37    34    28   ar
@<TRIPOS>MOLECULE
*****
 34 37 0 0 0
SMALL
GASTEIGER

@<TRIPOS>ATOM
      1 C         140.5327  139.4541  162.1332 C.3     1  UNL1        0.0188
      2 C         141.8088  138.7390  161.8009 C.3     1  UNL1        0.0188
      3 C         142.8203  139.3878  160.9033 C.3     1  UNL1        0.0724
      4 N         142.5558  140.7517  160.3379 N.3     1  UNL1       -0.2691
      5 C         141.2798  141.4668  160.6701 C.3     1  UNL1        0.0724
      6 C         140.2682  140.8180  161.5677 C.3     1  UNL1        0.0188
      7 C         139.5212  138.8052  163.0309 C.3     1  UNL1        0.0721
      8 C         139.5472  139.6722  167.4465 C.3     1  UNL1        0.1687
      9 C         138.3465  139.0322  166.8148 C.3     1  UNL1        0.0609
     10 C         138.3379  138.7432  165.3430 C.3     1  UNL1        0.0758
     11 N         139.5298  139.0942  164.5027 N.3     1  UNL1       -0.2724
     12 C         140.7304  139.7342  165.1343 C.3     1  UNL1        0.0758
     13 C         140.7391  140.0232  166.6062 C.3     1  UNL1        0.0609
     14 O         139.5558  139.9612  168.9183 O.3     1  UNL1       -0.4794
     15 C         142.2220  139.0259  169.9265 C.3     1  UNL1        0.0343
     16 C         141.8660  140.4818  169.9870 C.ar    1  UNL1        0.0143
     17 C         142.8430  141.4700  170.5516 C.ar    1  UNL1        0.0284
     18 C         142.4870  142.9259  170.6120 C.ar    1  UNL1        0.1400
     19 F         143.4641  143.9141  171.1766 F       1  UNL1       -0.2042
     20 C         141.1539  143.3935  170.1080 C.ar    1  UNL1        0.0327
     21 C         140.1769  142.4053  169.5434 C.ar    1  UNL1        0.0389
     22 C         140.5329  140.9494  169.4829 C.ar    1  UNL1        0.1345
     23 C         143.5673  141.4006  159.4401 C.3     1  UNL1        0.0987
     24 C         143.6469  141.0098  157.9942 C.2     1  UNL1        0.0652
     25 O         144.6104  139.9467  157.5564 O.co2   1  UNL1       -0.5478
     26 O         142.7630  141.6822  156.9858 O.co2   1  UNL1       -0.5478
     27 C         144.4993  142.4402  159.9885 C.3     1  UNL1        0.0480
     28 C         144.5372  142.7103  161.4635 C.ar    1  UNL1       -0.0203
     29 C         143.8138  143.8971  162.0275 C.ar    1  UNL1       -0.0019
     30 C         143.8518  144.1672  163.5025 C.ar    1  UNL1        0.0293
     31 C         144.6132  143.2505  164.4135 C.ar    1  UNL1        0.1401
     32 F         144.6511  143.5206  165.8884 F       1  UNL1       -0.2042
     33 C         145.3366  142.0637  163.8495 C.ar    1  UNL1        0.0293
     34 C         145.2986  141.7936  162.3745 C.ar    1  UNL1       -0.0019
@<TRIPOS>UNITY_ATOM_ATTR
25 1
charge -1
@<TRIPOS>BOND
     1    15    16    1
     2    16    17   ar
     3    17    18   ar
     4    18    19    1
     5    18    20   ar
     6    20    21   ar
     7    21    22   ar
     8    22    14    1
     9    14     8    1
    10     8     9    1
    11     9    10    1
    12    10    11    1
    13    11     7    1
    14     7     1    1
    15     1     2    1
    16     2     3    1
    17     3     4    1
    18     4    23    1
    19    23    27    1
    20    27    28    1
    21    28    29   ar
    22    29    30   ar
    23    30    31   ar
    24    31    32    1
    25    31    33   ar
    26    33    34   ar
    27    23    24    1
    28    24    25   ar
    29    24    26   ar
    30     4     5    1
    31     5     6    1
    32    11    12    1
    33    12    13    1
    34    22    16   ar
    35    13     8    1
    36     6     1    1
    37    34    28   ar
@<TRIPOS>MOLECULE
*****
 34 37 0 0 0
SMALL
GASTEIGER

@<TRIPOS>ATOM
      1 C         138.8696  140.1609  162.3221 C.3     1  UNL1        0.0188
      2 C         139.9806  140.0538  161.3200 C.3     1  UNL1        0.0188
      3 C         140.2249  141.1705  160.3488 C.3     1  UNL1        0.0724
      4 N         139.3583  142.3944  160.3798 N.3     1  UNL1       -0.2691
      5 C         138.2473  142.5016  161.3819 C.3     1  UNL1        0.0724
      6 C         138.0029  141.3848  162.3531 C.3     1  UNL1        0.0188
      7 C         138.6253  139.0441  163.2932 C.3     1  UNL1        0.0721
      8 C         139.3949  139.6704  167.6825 C.3     1  UNL1        0.1687
      9 C         140.3849  140.1641  166.6694 C.3     1  UNL1        0.0609
     10 C         140.1284  139.9553  165.2064 C.3     1  UNL1        0.0758
     11 N         138.8818  139.2529  164.7563 N.3     1  UNL1       -0.2724
     12 C         137.8918  138.7592  165.7692 C.3     1  UNL1        0.0758
     13 C         138.1483  138.9680  167.2324 C.3     1  UNL1        0.0609
     14 O         139.6514  139.8792  169.1455 O.3     1  UNL1       -0.4794
     15 C         142.4321  139.0147  169.8671 C.3     1  UNL1        0.0343
     16 C         142.0508  140.4628  169.9534 C.ar    1  UNL1        0.0143
     17 C         143.0597  141.4787  170.4004 C.ar    1  UNL1        0.0284
     18 C         142.6784  142.9269  170.4866 C.ar    1  UNL1        0.1400
     19 F         143.6875  143.9428  170.9337 F       1  UNL1       -0.2042
     20 C         141.2881  143.3591  170.1258 C.ar    1  UNL1        0.0327
     21 C         140.2792  142.3432  169.6788 C.ar    1  UNL1        0.0389
     22 C         140.6605  140.8951  169.5926 C.ar    1  UNL1        0.1345
     23 C         139.6026  143.5112  159.4086 C.3     1  UNL1        0.0987
     24 C         139.1758  143.3677  157.9778 C.2     1  UNL1        0.0652
     25 O         139.9754  144.0179  156.8879 O.co2   1  UNL1       -0.5478
     26 O         137.9495  142.5741  157.6369 O.co2   1  UNL1       -0.5478
     27 C         140.2737  144.7715  159.8684 C.3     1  UNL1        0.0480
     28 C         141.1786  144.7460  161.0643 C.ar    1  UNL1       -0.0203
     29 C         142.4983  144.0368  160.9913 C.ar    1  UNL1       -0.0019
     30 C         143.4033  144.0113  162.1874 C.ar    1  UNL1        0.0293
     31 C         142.9885  144.6951  163.4564 C.ar    1  UNL1        0.1401
     32 F         143.8934  144.6696  164.6524 F       1  UNL1       -0.2042
     33 C         141.6688  145.4044  163.5294 C.ar    1  UNL1        0.0293
     34 C         140.7638  145.4298  162.3334 C.ar    1  UNL1       -0.0019
@<TRIPOS>UNITY_ATOM_ATTR
25 1
charge -1
@<TRIPOS>BOND
     1    15    16    1
     2    16    17   ar
     3    17    18   ar
     4    18    19    1
     5    18    20   ar
     6    20    21   ar
     7    21    22   ar
     8    22    14    1
     9    14     8    1
    10     8     9    1
    11     9    10    1
    12    10    11    1
    13    11     7    1
    14     7     1    1
    15     1     2    1
    16     2     3    1
    17     3     4    1
    18     4    23    1
    19    23    27    1
    20    27    28    1
    21    28    29   ar
    22    29    30   ar
    23    30    31   ar
    24    31    32    1
    25    31    33   ar
    26    33    34   ar
    27    23    24    1
    28    24    25   ar
    29    24    26   ar
    30     4     5    1
    31     5     6    1
    32    11    12    1
    33    12    13    1
    34    22    16   ar
    35    13     8    1
    36     6     1    1
    37    34    28   ar
@<TRIPOS>MOLECULE
*****
 34 37 0 0 0
SMALL
GASTEIGER

@<TRIPOS>ATOM
      1 C         138.0502  142.4056  163.3413 C.3     1  UNL1        0.0188
      2 C         138.7460  142.4647  164.6688 C.3     1  UNL1        0.0188
      3 C         138.9050  141.2185  165.4884 C.3     1  UNL1        0.0724
      4 N         138.3682  139.9132  164.9804 N.3     1  UNL1       -0.2691
      5 C         137.6724  139.8541  163.6529 C.3     1  UNL1        0.0724
      6 C         137.5134  141.1003  162.8333 C.3     1  UNL1        0.0188
      7 C         137.8912  143.6518  162.5217 C.3     1  UNL1        0.0721
      8 C         141.0564  144.8007  159.5365 C.3     1  UNL1        0.1687
      9 C         140.1505  143.6378  159.2591 C.3     1  UNL1        0.0609
     10 C         139.0955  143.2548  160.2541 C.3     1  UNL1        0.0758
     11 N         138.9462  144.0348  161.5267 N.3     1  UNL1       -0.2724
     12 C         139.8521  145.1977  161.8042 C.3     1  UNL1        0.0758
     13 C         140.9072  145.5807  160.8091 C.3     1  UNL1        0.0609
     14 O         142.1115  145.1837  158.5415 O.3     1  UNL1       -0.4794
     15 C         141.6819  145.0220  155.5768 C.3     1  UNL1        0.0343
     16 C         142.5916  144.0426  156.2573 C.ar    1  UNL1        0.0143
     17 C         143.2865  142.9823  155.4555 C.ar    1  UNL1        0.0284
     18 C         144.1962  142.0029  156.1360 C.ar    1  UNL1        0.1400
     19 F         144.8911  140.9425  155.3342 F       1  UNL1       -0.2042
     20 C         144.4110  142.0837  157.6183 C.ar    1  UNL1        0.0327
     21 C         143.7161  143.1439  158.4201 C.ar    1  UNL1        0.0389
     22 C         142.8064  144.1234  157.7396 C.ar    1  UNL1        0.1345
     23 C         138.5272  138.6670  165.8000 C.3     1  UNL1        0.0987
     24 C         137.8899  138.5738  167.1547 C.2     1  UNL1        0.0652
     25 O         136.6655  137.7298  167.3511 O.co2   1  UNL1       -0.5478
     26 O         138.4770  139.3247  168.3130 O.co2   1  UNL1       -0.5478
     27 C         139.3235  137.5139  165.2649 C.3     1  UNL1        0.0480
     28 C         140.5480  137.7682  164.4367 C.ar    1  UNL1       -0.0203
     29 C         141.7857  138.3217  165.0783 C.ar    1  UNL1       -0.0019
     30 C         143.0102  138.5760  164.2501 C.ar    1  UNL1        0.0293
     31 C         142.9970  138.2769  162.7803 C.ar    1  UNL1        0.1401
     32 F         144.2215  138.5312  161.9522 F       1  UNL1       -0.2042
     33 C         141.7593  137.7234  162.1387 C.ar    1  UNL1        0.0293
     34 C         140.5348  137.4691  162.9669 C.ar    1  UNL1       -0.0019
@<TRIPOS>UNITY_ATOM_ATTR
25 1
charge -1
@<TRIPOS>BOND
     1    15    16    1
     2    16    17   ar
     3    17    18   ar
     4    18    19    1
     5    18    20   ar
     6    20    21   ar
     7    21    22   ar
     8    22    14    1
     9    14     8    1
    10     8     9    1
    11     9    10    1
    12    10    11    1
    13    11     7    1
    14     7     1    1
    15     1     2    1
    16     2     3    1
    17     3     4    1
    18     4    23    1
    19    23    27    1
    20    27    28    1
    21    28    29   ar
    22    29    30   ar
    23    30    31   ar
    24    31    32    1
    25    31    33   ar
    26    33    34   ar
    27    23    24    1
    28    24    25   ar
    29    24    26   ar
    30     4     5    1
    31     5     6    1
    32    11    12    1
    33    12    13    1
    34    22    16   ar
    35    13     8    1
    36     6     1    1
    37    34    28   ar
@<TRIPOS>MOLECULE
*****
 34 37 0 0 0
SMALL
GASTEIGER

@<TRIPOS>ATOM
      1 C         139.9871  142.7912  165.0049 C.3     1  UNL1        0.0188
      2 C         138.6410  142.3212  164.5387 C.3     1  UNL1        0.0188
      3 C         138.1329  140.9721  164.9529 C.3     1  UNL1        0.0724
      4 N         138.9707  140.0929  165.8332 N.3     1  UNL1       -0.2691
      5 C         140.3168  140.5629  166.2994 C.3     1  UNL1        0.0724
      6 C         140.8249  141.9120  165.8852 C.3     1  UNL1        0.0188
      7 C         140.4952  144.1404  164.5907 C.3     1  UNL1        0.0721
      8 C         141.4352  144.9606  160.2671 C.3     1  UNL1        0.1687
      9 C         140.2258  145.5802  160.9023 C.3     1  UNL1        0.0609
     10 C         139.9125  145.3068  162.3435 C.3     1  UNL1        0.0758
     11 N         140.8086  144.4138  163.1495 N.3     1  UNL1       -0.2724
     12 C         142.0179  143.7942  162.5144 C.3     1  UNL1        0.0758
     13 C         142.3313  144.0676  161.0731 C.3     1  UNL1        0.0609
     14 O         141.7486  145.2340  158.8259 O.3     1  UNL1       -0.4794
     15 C         139.8423  146.6416  156.9861 C.3     1  UNL1        0.0343
     16 C         140.0905  145.1709  156.8267 C.ar    1  UNL1        0.0143
     17 C         139.3856  144.4040  155.7474 C.ar    1  UNL1        0.0284
     18 C         139.6338  142.9333  155.5879 C.ar    1  UNL1        0.1400
     19 F         138.9289  142.1664  154.5085 F       1  UNL1       -0.2042
     20 C         140.5869  142.2295  156.5078 C.ar    1  UNL1        0.0327
     21 C         141.2918  142.9964  157.5871 C.ar    1  UNL1        0.0389
     22 C         141.0436  144.4671  157.7465 C.ar    1  UNL1        0.1345
     23 C         138.4626  138.7437  166.2474 C.3     1  UNL1        0.0987
     24 C         137.7346  138.5837  167.5490 C.2     1  UNL1        0.0652
     25 O         136.5896  137.6204  167.6545 O.co2   1  UNL1       -0.5478
     26 O         138.1515  139.3869  168.7453 O.co2   1  UNL1       -0.5478
     27 C         138.6825  137.5546  165.3599 C.3     1  UNL1        0.0480
     28 C         139.4689  137.7010  164.0910 C.ar    1  UNL1       -0.0203
     29 C         138.7633  138.0008  162.8017 C.ar    1  UNL1       -0.0019
     30 C         139.5498  138.1472  161.5328 C.ar    1  UNL1        0.0293
     31 C         141.0417  137.9938  161.5532 C.ar    1  UNL1        0.1401
     32 F         141.8281  138.1402  160.2843 F       1  UNL1       -0.2042
     33 C         141.7473  137.6940  162.8425 C.ar    1  UNL1        0.0293
     34 C         140.9609  137.5476  164.1114 C.ar    1  UNL1       -0.0019
@<TRIPOS>UNITY_ATOM_ATTR
25 1
charge -1
@<TRIPOS>BOND
     1    15    16    1
     2    16    17   ar
     3    17    18   ar
     4    18    19    1
     5    18    20   ar
     6    20    21   ar
     7    21    22   ar
     8    22    14    1
     9    14     8    1
    10     8     9    1
    11     9    10    1
    12    10    11    1
    13    11     7    1
    14     7     1    1
    15     1     2    1
    16     2     3    1
    17     3     4    1
    18     4    23    1
    19    23    27    1
    20    27    28    1
    21    28    29   ar
    22    29    30   ar
    23    30    31   ar
    24    31    32    1
    25    31    33   ar
    26    33    34   ar
    27    23    24    1
    28    24    25   ar
    29    24    26   ar
    30     4     5    1
    31     5     6    1
    32    11    12    1
    33    12    13    1
    34    22    16   ar
    35    13     8    1
    36     6     1    1
    37    34    28   ar
@<TRIPOS>MOLECULE
*****
 34 37 0 0 0
SMALL
GASTEIGER

@<TRIPOS>ATOM
      1 C         142.5037  142.4694  165.4498 C.3     1  UNL1        0.0188
      2 C         142.8508  141.0768  165.8859 C.3     1  UNL1        0.0188
      3 C         141.8838  140.2887  166.7187 C.3     1  UNL1        0.0724
      4 N         140.5696  140.8932  167.1155 N.3     1  UNL1       -0.2691
      5 C         140.2224  142.2858  166.6795 C.3     1  UNL1        0.0724
      6 C         141.1895  143.0739  165.8466 C.3     1  UNL1        0.0188
      7 C         143.4708  143.2575  164.6169 C.3     1  UNL1        0.0721
      8 C         143.1619  143.1755  160.1283 C.3     1  UNL1        0.1687
      9 C         144.3792  142.6203  160.8066 C.3     1  UNL1        0.0609
     10 C         144.4821  142.6476  162.3028 C.3     1  UNL1        0.0758
     11 N         143.3678  143.2302  163.1207 N.3     1  UNL1       -0.2724
     12 C         142.1506  143.7853  162.4425 C.3     1  UNL1        0.0758
     13 C         142.0476  143.7580  160.9462 C.3     1  UNL1        0.0609
     14 O         143.0589  143.1481  158.6321 O.3     1  UNL1       -0.4794
     15 C         140.4833  141.7807  157.9276 C.3     1  UNL1        0.0343
     16 C         140.6808  143.2285  157.5890 C.ar    1  UNL1        0.0143
     17 C         139.5905  143.9927  156.8982 C.ar    1  UNL1        0.0284
     18 C         139.7880  145.4406  156.5595 C.ar    1  UNL1        0.1400
     19 F         138.6977  146.2047  155.8687 F       1  UNL1       -0.2042
     20 C         141.0758  146.1243  156.9118 C.ar    1  UNL1        0.0327
     21 C         142.1661  145.3601  157.6026 C.ar    1  UNL1        0.0389
     22 C         141.9686  143.9123  157.9412 C.ar    1  UNL1        0.1345
     23 C         139.6025  140.1051  167.9484 C.3     1  UNL1        0.0987
     24 C         139.7019  140.1369  169.4447 C.2     1  UNL1        0.0652
     25 O         138.7068  140.9229  170.2460 O.co2   1  UNL1       -0.5478
     26 O         140.7965  139.3828  170.1399 O.co2   1  UNL1       -0.5478
     27 C         138.5359  139.2852  167.2849 C.3     1  UNL1        0.0480
     28 C         138.5508  139.0981  165.7967 C.ar    1  UNL1       -0.0203
     29 C         138.0594  140.1940  164.8981 C.ar    1  UNL1       -0.0019
     30 C         138.0742  140.0069  163.4098 C.ar    1  UNL1        0.0293
     31 C         138.5804  138.7240  162.8203 C.ar    1  UNL1        0.1401
     32 F         138.5953  138.5369  161.3321 F       1  UNL1       -0.2042
     33 C         139.0718  137.6280  163.7188 C.ar    1  UNL1        0.0293
     34 C         139.0570  137.8151  165.2070 C.ar    1  UNL1       -0.0019
@<TRIPOS>UNITY_ATOM_ATTR
25 1
charge -1
@<TRIPOS>BOND
     1    15    16    1
     2    16    17   ar
     3    17    18   ar
     4    18    19    1
     5    18    20   ar
     6    20    21   ar
     7    21    22   ar
     8    22    14    1
     9    14     8    1
    10     8     9    1
    11     9    10    1
    12    10    11    1
    13    11     7    1
    14     7     1    1
    15     1     2    1
    16     2     3    1
    17     3     4    1
    18     4    23    1
    19    23    27    1
    20    27    28    1
    21    28    29   ar
    22    29    30   ar
    23    30    31   ar
    24    31    32    1
    25    31    33   ar
    26    33    34   ar
    27    23    24    1
    28    24    25   ar
    29    24    26   ar
    30     4     5    1
    31     5     6    1
    32    11    12    1
    33    12    13    1
    34    22    16   ar
    35    13     8    1
    36     6     1    1
    37    34    28   ar
@<TRIPOS>MOLECULE
*****
 34 37 0 0 0
SMALL
GASTEIGER

@<TRIPOS>ATOM
      1 C         138.7994  142.6142  164.8628 C.3     1  UNL1        0.0188
      2 C         138.6464  141.1565  165.1819 C.3     1  UNL1        0.0188
      3 C         139.2815  140.5883  166.4163 C.3     1  UNL1        0.0724
      4 N         140.0695  141.4777  167.3316 N.3     1  UNL1       -0.2691
      5 C         140.2225  142.9353  167.0125 C.3     1  UNL1        0.0724
      6 C         139.5875  143.5036  165.7781 C.3     1  UNL1        0.0188
      7 C         138.1643  143.1824  163.6284 C.3     1  UNL1        0.0721
      8 C         140.7280  145.0396  160.4302 C.3     1  UNL1        0.1687
      9 C         140.3916  143.5791  160.3678 C.3     1  UNL1        0.0609
     10 C         139.5371  142.9600  161.4338 C.3     1  UNL1        0.0758
     11 N         139.0189  143.8014  162.5623 N.3     1  UNL1       -0.2724
     12 C         139.3552  145.2619  162.6248 C.3     1  UNL1        0.0758
     13 C         140.2098  145.8810  161.5587 C.3     1  UNL1        0.0609
     14 O         141.5825  145.6586  159.3641 O.3     1  UNL1       -0.4794
     15 C         143.0741  143.6457  157.7139 C.3     1  UNL1        0.0343
     16 C         141.9790  144.4611  157.0928 C.ar    1  UNL1        0.0143
     17 C         141.6297  144.2702  155.6466 C.ar    1  UNL1        0.0284
     18 C         140.5346  145.0856  155.0255 C.ar    1  UNL1        0.1400
     19 F         140.1853  144.8946  153.5793 F       1  UNL1       -0.2042
     20 C         139.7888  146.0921  155.8506 C.ar    1  UNL1        0.0327
     21 C         140.1381  146.2830  157.2968 C.ar    1  UNL1        0.0389
     22 C         141.2332  145.4676  157.9179 C.ar    1  UNL1        0.1345
     23 C         140.7046  140.9094  168.5661 C.3     1  UNL1        0.0987
     24 C         139.9337  140.8611  169.8518 C.2     1  UNL1        0.0652
     25 O         139.7218  139.5508  170.5505 O.co2   1  UNL1       -0.5478
     26 O         139.3746  142.1232  170.4390 O.co2   1  UNL1       -0.5478
     27 C         142.1107  140.3896  168.5147 C.3     1  UNL1        0.0480
     28 C         142.7956  140.2087  167.1925 C.ar    1  UNL1       -0.0203
     29 C         143.2070  141.4078  166.3907 C.ar    1  UNL1       -0.0019
     30 C         143.8920  141.2268  165.0685 C.ar    1  UNL1        0.0293
     31 C         144.1654  139.8468  164.5481 C.ar    1  UNL1        0.1401
     32 F         144.8503  139.6660  163.2260 F       1  UNL1       -0.2042
     33 C         143.7540  138.6477  165.3500 C.ar    1  UNL1        0.0293
     34 C         143.0691  138.8286  166.6721 C.ar    1  UNL1       -0.0019
@<TRIPOS>UNITY_ATOM_ATTR
25 1
charge -1
@<TRIPOS>BOND
     1    15    16    1
     2    16    17   ar
     3    17    18   ar
     4    18    19    1
     5    18    20   ar
     6    20    21   ar
     7    21    22   ar
     8    22    14    1
     9    14     8    1
    10     8     9    1
    11     9    10    1
    12    10    11    1
    13    11     7    1
    14     7     1    1
    15     1     2    1
    16     2     3    1
    17     3     4    1
    18     4    23    1
    19    23    27    1
    20    27    28    1
    21    28    29   ar
    22    29    30   ar
    23    30    31   ar
    24    31    32    1
    25    31    33   ar
    26    33    34   ar
    27    23    24    1
    28    24    25   ar
    29    24    26   ar
    30     4     5    1
    31     5     6    1
    32    11    12    1
    33    12    13    1
    34    22    16   ar
    35    13     8    1
    36     6     1    1
    37    34    28   ar
@<TRIPOS>MOLECULE
*****
 34 37 0 0 0
SMALL
GASTEIGER

@<TRIPOS>ATOM
      1 C         144.1124  140.6714  164.5206 C.3     1  UNL1        0.0188
      2 C         143.8656  139.2783  165.0189 C.3     1  UNL1        0.0188
      3 C         142.8655  139.0385  166.1108 C.3     1  UNL1        0.0724
      4 N         142.1123  140.1918  166.7044 N.3     1  UNL1       -0.2691
      5 C         142.3592  141.5849  166.2062 C.3     1  UNL1        0.0724
      6 C         143.3592  141.8247  165.1142 C.3     1  UNL1        0.0188
      7 C         145.1126  140.9111  163.4286 C.3     1  UNL1        0.0721
      8 C         143.7658  141.0631  159.1376 C.3     1  UNL1        0.1687
      9 C         144.2572  142.3085  159.8140 C.3     1  UNL1        0.0609
     10 C         144.7061  142.2579  161.2444 C.3     1  UNL1        0.0758
     11 N         144.6636  140.9618  161.9983 N.3     1  UNL1       -0.2724
     12 C         144.1722  139.7164  161.3219 C.3     1  UNL1        0.0758
     13 C         143.7232  139.7671  159.8916 C.3     1  UNL1        0.0609
     14 O         143.3168  141.1138  157.7073 O.3     1  UNL1       -0.4794
     15 C         145.6036  140.4758  155.8732 C.3     1  UNL1        0.0343
     16 C         144.4344  139.5409  155.9674 C.ar    1  UNL1        0.0143
     17 C         144.4085  138.2871  155.1446 C.ar    1  UNL1        0.0284
     18 C         143.2393  137.3522  155.2387 C.ar    1  UNL1        0.1400
     19 F         143.2134  136.0982  154.4158 F       1  UNL1       -0.2042
     20 C         142.0959  137.6711  156.1557 C.ar    1  UNL1        0.0327
     21 C         142.1218  138.9250  156.9786 C.ar    1  UNL1        0.0389
     22 C         143.2910  139.8599  156.8844 C.ar    1  UNL1        0.1345
     23 C         141.1122  139.9521  167.7964 C.3     1  UNL1        0.0987
     24 C         141.5760  139.7670  169.2108 C.2     1  UNL1        0.0652
     25 O         143.0358  139.8670  169.5406 O.co2   1  UNL1       -0.5478
     26 O         140.5798  139.4820  170.2955 O.co2   1  UNL1       -0.5478
     27 C         139.6483  139.8974  167.4739 C.3     1  UNL1        0.0480
     28 C         139.1996  139.6762  166.0598 C.ar    1  UNL1       -0.0203
     29 C         139.2716  138.3050  165.4559 C.ar    1  UNL1       -0.0019
     30 C         138.8229  138.0837  164.0418 C.ar    1  UNL1        0.0293
     31 C         138.3022  139.2337  163.2315 C.ar    1  UNL1        0.1401
     32 F         137.8535  139.0124  161.8175 F       1  UNL1       -0.2042
     33 C         138.2302  140.6049  163.8354 C.ar    1  UNL1        0.0293
     34 C         138.6789  140.8261  165.2495 C.ar    1  UNL1       -0.0019
@<TRIPOS>UNITY_ATOM_ATTR
25 1
charge -1
@<TRIPOS>BOND
     1    15    16    1
     2    16    17   ar
     3    17    18   ar
     4    18    19    1
     5    18    20   ar
     6    20    21   ar
     7    21    22   ar
     8    22    14    1
     9    14     8    1
    10     8     9    1
    11     9    10    1
    12    10    11    1
    13    11     7    1
    14     7     1    1
    15     1     2    1
    16     2     3    1
    17     3     4    1
    18     4    23    1
    19    23    27    1
    20    27    28    1
    21    28    29   ar
    22    29    30   ar
    23    30    31   ar
    24    31    32    1
    25    31    33   ar
    26    33    34   ar
    27    23    24    1
    28    24    25   ar
    29    24    26   ar
    30     4     5    1
    31     5     6    1
    32    11    12    1
    33    12    13    1
    34    22    16   ar
    35    13     8    1
    36     6     1    1
    37    34    28   ar
@<TRIPOS>MOLECULE
*****
 34 37 0 0 0
SMALL
GASTEIGER

@<TRIPOS>ATOM
      1 C         140.6720  138.0263  164.7031 C.3     1  UNL1        0.0188
      2 C         139.3254  138.5563  165.0977 C.3     1  UNL1        0.0188
      3 C         139.2029  139.5116  166.2476 C.3     1  UNL1        0.0724
      4 N         140.4271  139.9368  167.0030 N.3     1  UNL1       -0.2691
      5 C         141.7737  139.4068  166.6084 C.3     1  UNL1        0.0724
      6 C         141.8962  138.4515  165.4585 C.3     1  UNL1        0.0188
      7 C         140.7945  137.0709  163.5531 C.3     1  UNL1        0.0721
      8 C         141.0417  138.6386  159.3423 C.3     1  UNL1        0.1687
      9 C         142.2904  138.2241  160.0628 C.3     1  UNL1        0.0609
     10 C         142.2080  137.7015  161.4664 C.3     1  UNL1        0.0758
     11 N         140.8769  137.5935  162.1495 N.3     1  UNL1       -0.2724
     12 C         139.6283  138.0080  161.4291 C.3     1  UNL1        0.0758
     13 C         139.7107  138.5305  160.0254 C.3     1  UNL1        0.0609
     14 O         141.1242  139.1611  157.9387 O.3     1  UNL1       -0.4794
     15 C         143.6929  139.5361  156.4351 C.3     1  UNL1        0.0343
     16 C         142.7607  138.4220  156.0611 C.ar    1  UNL1        0.0143
     17 C         143.1129  137.4954  154.9353 C.ar    1  UNL1        0.0284
     18 C         142.1807  136.3813  154.5614 C.ar    1  UNL1        0.1400
     19 F         142.5329  135.4547  153.4355 F       1  UNL1       -0.2042
     20 C         140.8963  136.1939  155.3131 C.ar    1  UNL1        0.0327
     21 C         140.5442  137.1205  156.4389 C.ar    1  UNL1        0.0389
     22 C         141.4764  138.2345  156.8129 C.ar    1  UNL1        0.1345
     23 C         140.3046  140.8922  168.1530 C.3     1  UNL1        0.0987
     24 C         139.9393  140.3826  169.5156 C.2     1  UNL1        0.0652
     25 O         140.7981  139.3515  170.1860 O.co2   1  UNL1       -0.5478
     26 O         138.7151  140.9042  170.2080 O.co2   1  UNL1       -0.5478
     27 C         140.5476  142.3570  167.9403 C.3     1  UNL1        0.0480
     28 C         140.7401  142.8915  166.5520 C.ar    1  UNL1       -0.0203
     29 C         139.5911  143.5273  165.8271 C.ar    1  UNL1       -0.0019
     30 C         139.7836  144.0618  164.4388 C.ar    1  UNL1        0.0293
     31 C         141.1251  143.9604  163.7755 C.ar    1  UNL1        0.1401
     32 F         141.3176  144.4949  162.3872 F       1  UNL1       -0.2042
     33 C         142.2741  143.3245  164.5004 C.ar    1  UNL1        0.0293
     34 C         142.0816  142.7901  165.8886 C.ar    1  UNL1       -0.0019
@<TRIPOS>UNITY_ATOM_ATTR
25 1
charge -1
@<TRIPOS>BOND
     1    15    16    1
     2    16    17   ar
     3    17    18   ar
     4    18    19    1
     5    18    20   ar
     6    20    21   ar
     7    21    22   ar
     8    22    14    1
     9    14     8    1
    10     8     9    1
    11     9    10    1
    12    10    11    1
    13    11     7    1
    14     7     1    1
    15     1     2    1
    16     2     3    1
    17     3     4    1
    18     4    23    1
    19    23    27    1
    20    27    28    1
    21    28    29   ar
    22    29    30   ar
    23    30    31   ar
    24    31    32    1
    25    31    33   ar
    26    33    34   ar
    27    23    24    1
    28    24    25   ar
    29    24    26   ar
    30     4     5    1
    31     5     6    1
    32    11    12    1
    33    12    13    1
    34    22    16   ar
    35    13     8    1
    36     6     1    1
    37    34    28   ar
