@<TRIPOS>MOLECULE
*****
 32 37 0 0 0
SMALL
GASTEIGER

@<TRIPOS>ATOM
      1 C         142.5733  136.7163  157.7723 C.3     1  UNL1        0.1161
      2 C         143.3021  135.4206  157.5721 C.3     1  UNL1        0.0510
      3 C         142.9501  134.5331  156.4152 C.2     1  UNL1       -0.0044
      4 C         141.8693  134.9412  155.4586 C.2     1  UNL1        0.0689
      5 N         141.7423  133.8686  154.4178 N.2     1  UNL1       -0.2526
      6 C         142.7446  132.7975  154.7312 C.2     1  UNL1        0.0627
      7 C         143.0739  131.5013  154.0519 C.3     1  UNL1        0.0717
      8 C         144.1498  130.6158  154.6072 C.2     1  UNL1       -0.0198
      9 C         144.8963  131.0265  155.8417 C.2     1  UNL1       -0.0042
     10 C         144.5669  132.3227  156.5210 C.2     1  UNL1        0.0006
     11 C         143.4911  133.2082  155.9657 C.2     1  UNL1        0.0111
     12 C         141.1405  136.2369  155.6588 C.3     1  UNL1        0.0948
     13 N         141.4924  137.1244  156.8157 N.3     1  UNL1       -0.2887
     14 H         140.6416  137.2426  157.3657 H       1  UNL1        0.1239
     15 C         143.2370  138.4385  161.1868 C.ar    1  UNL1        0.0769
     16 C         143.6969  139.5004  160.2324 C.ar    1  UNL1        0.1171
     17 N         143.5042  138.9845  158.8371 N.ar    1  UNL1       -0.2282
     18 C         142.9253  137.6038  158.9293 C.ar    1  UNL1        0.1318
     19 N         142.7602  137.2663  160.3814 N.ar    1  UNL1       -0.3397
     20 H         142.4017  136.4235  160.7425 H       1  UNL1        0.1671
     21 C         143.2806  138.7200  165.6778 C.ar    1  UNL1        0.0000
     22 C         144.4185  139.2842  164.8799 C.ar    1  UNL1        0.0000
     23 C         144.4040  139.1904  163.3829 C.ar    1  UNL1        0.0015
     24 C         143.2515  138.5323  162.6839 C.ar    1  UNL1        0.0172
     25 C         142.1136  137.9681  163.4817 C.ar    1  UNL1        0.0015
     26 C         142.1281  138.0619  164.9787 C.ar    1  UNL1        0.0000
     27 C         140.0596  136.6450  154.7021 C.3     1  UNL1        0.0219
     28 C         138.7554  137.1709  155.2240 C.3     1  UNL1        0.0134
     29 C         137.6746  137.5790  154.2672 C.3     1  UNL1        0.0576
     30 S         137.8980  137.4613  152.7887 S.3     1  UNL1       -0.1403
     31 C         139.2023  136.9355  152.2668 C.3     1  UNL1        0.0576
     32 C         140.2831  136.5273  153.2234 C.3     1  UNL1        0.0134
@<TRIPOS>BOND
     1    21    22   ar
     2    22    23   ar
     3    23    24   ar
     4    24    15    1
     5    15    16   ar
     6    16    17   ar
     7    17    18   ar
     8     1    18    1
     9     1     2    1
    10     2     3    1
    11     3     4    2
    12     4     5    1
    13     5     6    2
    14     6     7    1
    15     7     8    1
    16     8     9    2
    17     9    10    1
    18    10    11    2
    19     4    12    1
    20    12    27    1
    21    27    28    1
    22    28    29    1
    23    29    30    1
    24    30    31    1
    25    31    32    1
    26    12    13    1
    27    18    19   ar
    28    24    25   ar
    29    25    26   ar
    30    26    21   ar
    31    19    15   ar
    32    13     1    1
    33    11     3    1
    34    32    27    1
    35    11     6    1
    36    13    14    1
    37    19    20    1
@<TRIPOS>MOLECULE
*****
 32 37 0 0 0
SMALL
GASTEIGER

@<TRIPOS>ATOM
      1 C         139.3649  139.7905  157.6415 C.3     1  UNL1        0.1161
      2 C         139.0240  139.6875  159.0986 C.3     1  UNL1        0.0510
      3 C         138.7315  140.9277  159.8899 C.2     1  UNL1       -0.0044
      4 C         138.7800  142.2710  159.2241 C.2     1  UNL1        0.0689
      5 N         138.4472  143.3105  160.2530 N.2     1  UNL1       -0.2526
      6 C         138.1930  142.6097  161.5547 C.2     1  UNL1        0.0627
      7 C         137.8243  143.1223  162.9152 C.3     1  UNL1        0.0717
      8 C         137.6312  142.1622  164.0514 C.2     1  UNL1       -0.0198
      9 C         137.8070  140.6896  163.8270 C.2     1  UNL1       -0.0042
     10 C         138.1757  140.1770  162.4664 C.2     1  UNL1        0.0006
     11 C         138.3687  141.1371  161.3303 C.2     1  UNL1        0.0111
     12 C         139.1210  142.3740  157.7670 C.3     1  UNL1        0.0948
     13 N         139.4134  141.1338  156.9757 N.3     1  UNL1       -0.2887
     14 H         140.3545  141.2410  156.5972 H       1  UNL1        0.1239
     15 C         140.7312  136.5323  156.0344 C.ar    1  UNL1        0.0769
     16 C         139.4838  136.7509  155.2306 C.ar    1  UNL1        0.1171
     17 N         138.8201  137.9980  155.7348 N.ar    1  UNL1       -0.2282
     18 C         139.6574  138.5501  156.8501 C.ar    1  UNL1        0.1318
     19 N         140.8386  137.6443  157.0353 N.ar    1  UNL1       -0.3397
     20 H         141.5579  137.7595  157.6975 H       1  UNL1        0.1671
     21 C         143.6410  133.1367  155.5313 C.ar    1  UNL1        0.0000
     22 C         143.8526  134.1512  156.6157 C.ar    1  UNL1        0.0000
     23 C         142.8827  135.2830  156.7834 C.ar    1  UNL1        0.0015
     24 C         141.7012  135.4004  155.8666 C.ar    1  UNL1        0.0172
     25 C         141.4896  134.3858  154.7823 C.ar    1  UNL1        0.0015
     26 C         142.4595  133.2540  154.6146 C.ar    1  UNL1        0.0000
     27 C         139.1695  143.7173  157.1012 C.3     1  UNL1        0.0219
     28 C         140.1200  144.7662  157.5971 C.3     1  UNL1        0.0134
     29 C         140.1685  146.1095  156.9312 C.3     1  UNL1        0.0576
     30 S         139.2663  146.4038  155.7695 S.3     1  UNL1       -0.1403
     31 C         138.3157  145.3547  155.2736 C.3     1  UNL1        0.0576
     32 C         138.2673  144.0115  155.9394 C.3     1  UNL1        0.0134
@<TRIPOS>BOND
     1    21    22   ar
     2    22    23   ar
     3    23    24   ar
     4    24    15    1
     5    15    16   ar
     6    16    17   ar
     7    17    18   ar
     8     1    18    1
     9     1     2    1
    10     2     3    1
    11     3     4    2
    12     4     5    1
    13     5     6    2
    14     6     7    1
    15     7     8    1
    16     8     9    2
    17     9    10    1
    18    10    11    2
    19     4    12    1
    20    12    27    1
    21    27    28    1
    22    28    29    1
    23    29    30    1
    24    30    31    1
    25    31    32    1
    26    12    13    1
    27    18    19   ar
    28    24    25   ar
    29    25    26   ar
    30    26    21   ar
    31    19    15   ar
    32    13     1    1
    33    11     3    1
    34    32    27    1
    35    11     6    1
    36    13    14    1
    37    19    20    1
@<TRIPOS>MOLECULE
*****
 32 37 0 0 0
SMALL
GASTEIGER

@<TRIPOS>ATOM
      1 C         143.3963  140.1087  158.0401 C.3     1  UNL1        0.1161
      2 C         143.9348  140.1226  159.4400 C.3     1  UNL1        0.0510
      3 C         143.8042  141.3574  160.2815 C.2     1  UNL1       -0.0044
      4 C         143.1350  142.5782  159.7232 C.2     1  UNL1        0.0689
      5 N         143.1522  143.6411  160.7814 N.2     1  UNL1       -0.2526
      6 C         143.8320  143.0772  161.9938 C.2     1  UNL1        0.0627
      7 C         144.1362  143.6666  163.3392 C.3     1  UNL1        0.0717
      8 C         144.8433  142.8446  164.3756 C.2     1  UNL1       -0.0198
      9 C         145.2462  141.4331  164.0667 C.2     1  UNL1       -0.0042
     10 C         144.9421  140.8437  162.7213 C.2     1  UNL1        0.0006
     11 C         144.2350  141.6658  161.6849 C.2     1  UNL1        0.0111
     12 C         142.5965  142.5642  158.3232 C.3     1  UNL1        0.0948
     13 N         142.7271  141.3295  157.4817 N.3     1  UNL1       -0.2887
     14 H         143.2495  141.5959  156.6471 H       1  UNL1        0.1239
     15 C         143.3237  136.5892  156.4049 C.ar    1  UNL1        0.0769
     16 C         144.1322  137.3580  155.4023 C.ar    1  UNL1        0.1171
     17 N         144.2579  138.7700  155.8928 N.ar    1  UNL1       -0.2282
     18 C         143.5269  138.8738  157.1985 C.ar    1  UNL1        0.1318
     19 N         142.9496  137.5261  157.5150 N.ar    1  UNL1       -0.3397
     20 H         142.4184  137.2966  158.3115 H       1  UNL1        0.1671
     21 C         142.2150  132.2366  156.1305 C.ar    1  UNL1        0.0000
     22 C         143.3394  132.6692  157.0242 C.ar    1  UNL1        0.0000
     23 C         143.7089  134.1201  157.1156 C.ar    1  UNL1        0.0015
     24 C         142.9541  135.1383  156.3134 C.ar    1  UNL1        0.0172
     25 C         141.8298  134.7056  155.4198 C.ar    1  UNL1        0.0015
     26 C         141.4602  133.2548  155.3283 C.ar    1  UNL1        0.0000
     27 C         141.9273  143.7851  157.7648 C.3     1  UNL1        0.0219
     28 C         142.3586  144.3362  156.4382 C.3     1  UNL1        0.0134
     29 C         141.6894  145.5571  155.8799 C.3     1  UNL1        0.0576
     30 S         140.5888  146.2267  156.6482 S.3     1  UNL1       -0.1403
     31 C         140.1574  145.6755  157.9749 C.3     1  UNL1        0.0576
     32 C         140.8266  144.4547  158.5332 C.3     1  UNL1        0.0134
@<TRIPOS>BOND
     1    21    22   ar
     2    22    23   ar
     3    23    24   ar
     4    24    15    1
     5    15    16   ar
     6    16    17   ar
     7    17    18   ar
     8     1    18    1
     9     1     2    1
    10     2     3    1
    11     3     4    2
    12     4     5    1
    13     5     6    2
    14     6     7    1
    15     7     8    1
    16     8     9    2
    17     9    10    1
    18    10    11    2
    19     4    12    1
    20    12    27    1
    21    27    28    1
    22    28    29    1
    23    29    30    1
    24    30    31    1
    25    31    32    1
    26    12    13    1
    27    18    19   ar
    28    24    25   ar
    29    25    26   ar
    30    26    21   ar
    31    19    15   ar
    32    13     1    1
    33    11     3    1
    34    32    27    1
    35    11     6    1
    36    13    14    1
    37    19    20    1
@<TRIPOS>MOLECULE
*****
 32 37 0 0 0
SMALL
GASTEIGER

@<TRIPOS>ATOM
      1 C         143.3361  142.7339  157.4392 C.3     1  UNL1        0.1161
      2 C         143.4460  143.1393  158.8792 C.3     1  UNL1        0.0510
      3 C         142.2593  143.7238  159.5864 C.2     1  UNL1       -0.0044
      4 C         140.9628  143.9028  158.8537 C.2     1  UNL1        0.0689
      5 N         139.9709  144.5016  159.8063 N.2     1  UNL1       -0.2526
      6 C         140.6544  144.6927  161.1278 C.2     1  UNL1        0.0627
      7 C         140.1716  145.2424  162.4373 C.3     1  UNL1        0.0717
      8 C         141.1032  145.3113  163.6108 C.2     1  UNL1       -0.0198
      9 C         142.5176  144.8305  163.4749 C.2     1  UNL1       -0.0042
     10 C         143.0003  144.2809  162.1655 C.2     1  UNL1        0.0006
     11 C         142.0687  144.2120  160.9919 C.2     1  UNL1        0.0111
     12 C         140.8529  143.4973  157.4137 C.3     1  UNL1        0.0948
     13 N         142.0395  142.9129  156.7064 N.3     1  UNL1       -0.2887
     14 H         142.2335  143.5173  155.9080 H       1  UNL1        0.1239
     15 C         146.6359  141.9377  155.5569 C.ar    1  UNL1        0.0769
     16 C         146.0621  140.5626  155.7303 C.ar    1  UNL1        0.1171
     17 N         144.7561  140.6935  156.4565 N.ar    1  UNL1       -0.2282
     18 C         144.5228  142.1494  156.7319 C.ar    1  UNL1        0.1318
     19 N         145.6845  142.9184  156.1760 N.ar    1  UNL1       -0.3397
     20 H         145.8020  143.8952  156.2112 H       1  UNL1        0.1671
     21 C         150.5278  142.9441  153.5346 C.ar    1  UNL1        0.0000
     22 C         149.2570  143.6018  153.0850 C.ar    1  UNL1        0.0000
     23 C         147.9597  143.2663  153.7590 C.ar    1  UNL1        0.0015
     24 C         147.9332  142.2731  154.8828 C.ar    1  UNL1        0.0172
     25 C         149.2041  141.6154  155.3325 C.ar    1  UNL1        0.0015
     26 C         150.5014  141.9509  154.6584 C.ar    1  UNL1        0.0000
     27 C         139.5563  143.6763  156.6809 C.3     1  UNL1        0.0219
     28 C         138.4717  142.6489  156.8139 C.3     1  UNL1        0.0134
     29 C         137.1751  142.8280  156.0811 C.3     1  UNL1        0.0576
     30 S         136.9633  144.0345  155.2154 S.3     1  UNL1       -0.1403
     31 C         138.0480  145.0619  155.0824 C.3     1  UNL1        0.0576
     32 C         139.3445  144.8829  155.8151 C.3     1  UNL1        0.0134
@<TRIPOS>BOND
     1    21    22   ar
     2    22    23   ar
     3    23    24   ar
     4    24    15    1
     5    15    16   ar
     6    16    17   ar
     7    17    18   ar
     8     1    18    1
     9     1     2    1
    10     2     3    1
    11     3     4    2
    12     4     5    1
    13     5     6    2
    14     6     7    1
    15     7     8    1
    16     8     9    2
    17     9    10    1
    18    10    11    2
    19     4    12    1
    20    12    27    1
    21    27    28    1
    22    28    29    1
    23    29    30    1
    24    30    31    1
    25    31    32    1
    26    12    13    1
    27    18    19   ar
    28    24    25   ar
    29    25    26   ar
    30    26    21   ar
    31    19    15   ar
    32    13     1    1
    33    11     3    1
    34    32    27    1
    35    11     6    1
    36    13    14    1
    37    19    20    1
@<TRIPOS>MOLECULE
*****
 32 37 0 0 0
SMALL
GASTEIGER

@<TRIPOS>ATOM
      1 C         142.5233  139.5592  158.2132 C.3     1  UNL1        0.1161
      2 C         143.1951  139.5737  159.5543 C.3     1  UNL1        0.0510
      3 C         143.4387  140.8763  160.2571 C.2     1  UNL1       -0.0044
      4 C         143.0105  142.1644  159.6188 C.2     1  UNL1        0.0689
      5 N         143.3808  143.2856  160.5438 N.2     1  UNL1       -0.2526
      6 C         144.0379  142.6904  161.7538 C.2     1  UNL1        0.0627
      7 C         144.6082  143.3120  162.9941 C.3     1  UNL1        0.0717
      8 C         145.2143  142.4446  164.0571 C.2     1  UNL1       -0.0198
      9 C         145.2501  140.9555  163.8799 C.2     1  UNL1       -0.0042
     10 C         144.6797  140.3339  162.6396 C.2     1  UNL1        0.0006
     11 C         144.0736  141.2014  161.5766 C.2     1  UNL1        0.0111
     12 C         142.3387  142.1499  158.2777 C.3     1  UNL1        0.0948
     13 N         142.0951  140.8473  157.5749 N.3     1  UNL1       -0.2887
     14 H         142.5736  140.9038  156.6759 H       1  UNL1        0.1239
     15 C         142.5313  135.9718  156.7315 C.ar    1  UNL1        0.0769
     16 C         141.2784  136.5324  156.1265 C.ar    1  UNL1        0.1171
     17 N         141.1229  137.9445  156.6079 N.ar    1  UNL1       -0.2282
     18 C         142.2797  138.2566  157.5104 C.ar    1  UNL1        0.1318
     19 N         143.1501  137.0374  157.5868 N.ar    1  UNL1       -0.3397
     20 H         143.9816  136.9517  158.1069 H       1  UNL1        0.1671
     21 C         144.1495  131.8217  156.0925 C.ar    1  UNL1        0.0000
     22 C         143.3742  132.5004  155.0025 C.ar    1  UNL1        0.0000
     23 C         142.8349  133.8838  155.2155 C.ar    1  UNL1        0.0015
     24 C         143.0707  134.5884  156.5185 C.ar    1  UNL1        0.0172
     25 C         143.8459  133.9096  157.6086 C.ar    1  UNL1        0.0015
     26 C         144.3853  132.5263  157.3956 C.ar    1  UNL1        0.0000
     27 C         141.9106  143.4380  157.6394 C.3     1  UNL1        0.0219
     28 C         140.7947  144.2390  158.2419 C.3     1  UNL1        0.0134
     29 C         140.3665  145.5272  157.6035 C.3     1  UNL1        0.0576
     30 S         141.0543  146.0142  156.3626 S.3     1  UNL1       -0.1403
     31 C         142.1702  145.2132  155.7601 C.3     1  UNL1        0.0576
     32 C         142.5983  143.9251  156.3984 C.3     1  UNL1        0.0134
@<TRIPOS>BOND
     1    21    22   ar
     2    22    23   ar
     3    23    24   ar
     4    24    15    1
     5    15    16   ar
     6    16    17   ar
     7    17    18   ar
     8     1    18    1
     9     1     2    1
    10     2     3    1
    11     3     4    2
    12     4     5    1
    13     5     6    2
    14     6     7    1
    15     7     8    1
    16     8     9    2
    17     9    10    1
    18    10    11    2
    19     4    12    1
    20    12    27    1
    21    27    28    1
    22    28    29    1
    23    29    30    1
    24    30    31    1
    25    31    32    1
    26    12    13    1
    27    18    19   ar
    28    24    25   ar
    29    25    26   ar
    30    26    21   ar
    31    19    15   ar
    32    13     1    1
    33    11     3    1
    34    32    27    1
    35    11     6    1
    36    13    14    1
    37    19    20    1
@<TRIPOS>MOLECULE
*****
 32 37 0 0 0
SMALL
GASTEIGER

@<TRIPOS>ATOM
      1 C         139.8886  143.6995  158.3156 C.3     1  UNL1        0.1161
      2 C         140.5825  142.3882  158.0943 C.3     1  UNL1        0.0510
      3 C         140.9213  141.5122  159.2638 C.2     1  UNL1       -0.0044
      4 C         140.5662  141.9475  160.6546 C.2     1  UNL1        0.0689
      5 N         141.0236  140.8810  161.6051 N.2     1  UNL1       -0.2526
      6 C         141.6613  139.7865  160.8017 C.2     1  UNL1        0.0627
      7 C         142.2913  138.4851  161.2008 C.3     1  UNL1        0.0717
      8 C         142.8582  137.5738  160.1529 C.2     1  UNL1       -0.0198
      9 C         142.7950  137.9639  158.7059 C.2     1  UNL1       -0.0042
     10 C         142.1649  139.2653  158.3068 C.2     1  UNL1        0.0006
     11 C         141.5981  140.1766  159.3547 C.2     1  UNL1        0.0111
     12 C         139.8724  143.2589  160.8759 C.3     1  UNL1        0.0948
     13 N         139.5336  144.1348  159.7064 N.3     1  UNL1       -0.2887
     14 H         139.9995  145.0286  159.8632 H       1  UNL1        0.1239
     15 C         139.3014  146.5183  155.7127 C.ar    1  UNL1        0.0769
     16 C         138.7556  145.3288  154.9798 C.ar    1  UNL1        0.1171
     17 N         138.9092  144.1281  155.8656 N.ar    1  UNL1       -0.2282
     18 C         139.5498  144.5755  157.1460 C.ar    1  UNL1        0.1318
     19 N         139.7923  146.0527  157.0515 N.ar    1  UNL1       -0.3397
     20 H         140.2016  146.6176  157.7462 H       1  UNL1        0.1671
     21 C         139.4417  150.7420  154.1665 C.ar    1  UNL1        0.0000
     22 C         140.1487  149.6475  153.4235 C.ar    1  UNL1        0.0000
     23 C         140.1019  148.2396  153.9389 C.ar    1  UNL1        0.0015
     24 C         139.3481  147.9263  155.1973 C.ar    1  UNL1        0.0172
     25 C         138.6411  149.0208  155.9403 C.ar    1  UNL1        0.0015
     26 C         138.6879  150.4286  155.4249 C.ar    1  UNL1        0.0000
     27 C         139.5173  143.6942  162.2668 C.3     1  UNL1        0.0219
     28 C         138.1006  143.5867  162.7476 C.3     1  UNL1        0.0134
     29 C         137.7456  144.0220  164.1385 C.3     1  UNL1        0.0576
     30 S         138.8073  144.5649  165.0484 S.3     1  UNL1       -0.1403
     31 C         140.2240  144.6725  164.5676 C.3     1  UNL1        0.0576
     32 C         140.5790  144.2371  163.1768 C.3     1  UNL1        0.0134
@<TRIPOS>BOND
     1    21    22   ar
     2    22    23   ar
     3    23    24   ar
     4    24    15    1
     5    15    16   ar
     6    16    17   ar
     7    17    18   ar
     8     1    18    1
     9     1     2    1
    10     2     3    1
    11     3     4    2
    12     4     5    1
    13     5     6    2
    14     6     7    1
    15     7     8    1
    16     8     9    2
    17     9    10    1
    18    10    11    2
    19     4    12    1
    20    12    27    1
    21    27    28    1
    22    28    29    1
    23    29    30    1
    24    30    31    1
    25    31    32    1
    26    12    13    1
    27    18    19   ar
    28    24    25   ar
    29    25    26   ar
    30    26    21   ar
    31    19    15   ar
    32    13     1    1
    33    11     3    1
    34    32    27    1
    35    11     6    1
    36    13    14    1
    37    19    20    1
@<TRIPOS>MOLECULE
*****
 32 37 0 0 0
SMALL
GASTEIGER

@<TRIPOS>ATOM
      1 C         140.9217  144.4779  160.1278 C.3     1  UNL1        0.1161
      2 C         140.2793  145.5308  159.2742 C.3     1  UNL1        0.0510
      3 C         140.6028  145.6109  157.8116 C.2     1  UNL1       -0.0044
      4 C         141.5686  144.6381  157.2028 C.2     1  UNL1        0.0689
      5 N         141.6919  144.9596  155.7428 N.2     1  UNL1       -0.2526
      6 C         140.8022  146.1312  155.4494 C.2     1  UNL1        0.0627
      7 C         140.5182  146.8834  154.1832 C.3     1  UNL1        0.0717
      8 C         139.5609  148.0382  154.1956 C.2     1  UNL1       -0.0198
      9 C         138.8878  148.4407  155.4742 C.2     1  UNL1       -0.0042
     10 C         139.1719  147.6885  156.7404 C.2     1  UNL1        0.0006
     11 C         140.1291  146.5337  156.7281 C.2     1  UNL1        0.0111
     12 C         142.2110  143.5852  158.0564 C.3     1  UNL1        0.0948
     13 N         141.8876  143.5051  159.5189 N.3     1  UNL1       -0.2887
     14 H         142.7687  143.6112  160.0216 H       1  UNL1        0.1239
     15 C         140.6967  143.8323  163.9485 C.ar    1  UNL1        0.0769
     16 C         139.5045  144.7168  163.7333 C.ar    1  UNL1        0.1171
     17 N         139.4437  145.0663  162.2759 N.ar    1  UNL1       -0.2282
     18 C         140.5983  144.3978  161.5904 C.ar    1  UNL1        0.1318
     19 N         141.3727  143.6352  162.6241 N.ar    1  UNL1       -0.3397
     20 H         142.1825  143.0993  162.4617 H       1  UNL1        0.1671
     21 C         142.0143  142.0782  167.8775 C.ar    1  UNL1        0.0000
     22 C         142.9862  142.1843  166.7400 C.ar    1  UNL1        0.0000
     23 C         142.5470  142.7690  165.4304 C.ar    1  UNL1        0.0015
     24 C         141.1359  143.2476  165.2583 C.ar    1  UNL1        0.0172
     25 C         140.1640  143.1416  166.3958 C.ar    1  UNL1        0.0015
     26 C         140.6031  142.5569  167.7054 C.ar    1  UNL1        0.0000
     27 C         143.1768  142.6123  157.4475 C.3     1  UNL1        0.0219
     28 C         144.6360  142.6931  157.7853 C.3     1  UNL1        0.0134
     29 C         145.6018  141.7202  157.1764 C.3     1  UNL1        0.0576
     30 S         145.1084  140.6666  156.2297 S.3     1  UNL1       -0.1403
     31 C         143.6491  140.5857  155.8918 C.3     1  UNL1        0.0576
     32 C         142.6834  141.5586  156.5007 C.3     1  UNL1        0.0134
@<TRIPOS>BOND
     1    21    22   ar
     2    22    23   ar
     3    23    24   ar
     4    24    15    1
     5    15    16   ar
     6    16    17   ar
     7    17    18   ar
     8     1    18    1
     9     1     2    1
    10     2     3    1
    11     3     4    2
    12     4     5    1
    13     5     6    2
    14     6     7    1
    15     7     8    1
    16     8     9    2
    17     9    10    1
    18    10    11    2
    19     4    12    1
    20    12    27    1
    21    27    28    1
    22    28    29    1
    23    29    30    1
    24    30    31    1
    25    31    32    1
    26    12    13    1
    27    18    19   ar
    28    24    25   ar
    29    25    26   ar
    30    26    21   ar
    31    19    15   ar
    32    13     1    1
    33    11     3    1
    34    32    27    1
    35    11     6    1
    36    13    14    1
    37    19    20    1
@<TRIPOS>MOLECULE
*****
 32 37 0 0 0
SMALL
GASTEIGER

@<TRIPOS>ATOM
      1 C         139.7318  144.3828  158.1216 C.3     1  UNL1        0.1161
      2 C         138.7533  143.3191  157.7203 C.3     1  UNL1        0.0510
      3 C         138.1553  143.3305  156.3447 C.2     1  UNL1       -0.0044
      4 C         138.5359  144.4057  155.3704 C.2     1  UNL1        0.0689
      5 N         137.7878  144.1602  154.0937 N.2     1  UNL1       -0.2526
      6 C         136.9450  142.9333  154.2788 C.2     1  UNL1        0.0627
      7 C         136.0000  142.2167  153.3604 C.3     1  UNL1        0.0717
      8 C         135.2822  140.9874  153.8332 C.2     1  UNL1       -0.0198
      9 C         135.5094  140.4747  155.2244 C.2     1  UNL1       -0.0042
     10 C         136.4543  141.1912  156.1428 C.2     1  UNL1        0.0006
     11 C         137.1721  142.4205  155.6701 C.2     1  UNL1        0.0111
     12 C         139.5144  145.4695  155.7718 C.3     1  UNL1        0.0948
     13 N         140.1124  145.4580  157.1474 N.3     1  UNL1       -0.2887
     14 H         139.8692  146.3483  157.5816 H       1  UNL1        0.1239
     15 C         140.5704  144.2349  161.9085 C.ar    1  UNL1        0.0769
     16 C         141.9295  144.4721  161.3197 C.ar    1  UNL1        0.1171
     17 N         141.7808  144.5564  159.8295 N.ar    1  UNL1       -0.2282
     18 C         140.3298  144.3713  159.4973 C.ar    1  UNL1        0.1318
     19 N         139.5818  144.1726  160.7821 N.ar    1  UNL1       -0.3397
     20 H         138.6121  144.0269  160.8706 H       1  UNL1        0.1671
     21 C         139.6251  143.7887  166.2854 C.ar    1  UNL1        0.0000
     22 C         140.7805  143.0418  165.6877 C.ar    1  UNL1        0.0000
     23 C         141.0956  143.1906  164.2288 C.ar    1  UNL1        0.0015
     24 C         140.2553  144.0862  163.3675 C.ar    1  UNL1        0.0172
     25 C         139.0999  144.8331  163.9652 C.ar    1  UNL1        0.0015
     26 C         138.7848  144.6843  165.4241 C.ar    1  UNL1        0.0000
     27 C         139.8949  146.5447  154.7976 C.3     1  UNL1        0.0219
     28 C         140.8153  146.2305  153.6557 C.3     1  UNL1        0.0134
     29 C         141.1958  147.3058  152.6814 C.3     1  UNL1        0.0576
     30 S         140.6559  148.6952  152.8491 S.3     1  UNL1       -0.1403
     31 C         139.7354  149.0093  153.9911 C.3     1  UNL1        0.0576
     32 C         139.3549  147.9341  154.9653 C.3     1  UNL1        0.0134
@<TRIPOS>BOND
     1    21    22   ar
     2    22    23   ar
     3    23    24   ar
     4    24    15    1
     5    15    16   ar
     6    16    17   ar
     7    17    18   ar
     8     1    18    1
     9     1     2    1
    10     2     3    1
    11     3     4    2
    12     4     5    1
    13     5     6    2
    14     6     7    1
    15     7     8    1
    16     8     9    2
    17     9    10    1
    18    10    11    2
    19     4    12    1
    20    12    27    1
    21    27    28    1
    22    28    29    1
    23    29    30    1
    24    30    31    1
    25    31    32    1
    26    12    13    1
    27    18    19   ar
    28    24    25   ar
    29    25    26   ar
    30    26    21   ar
    31    19    15   ar
    32    13     1    1
    33    11     3    1
    34    32    27    1
    35    11     6    1
    36    13    14    1
    37    19    20    1
@<TRIPOS>MOLECULE
*****
 32 37 0 0 0
SMALL
GASTEIGER

@<TRIPOS>ATOM
      1 C         142.5009  138.5241  158.3220 C.3     1  UNL1        0.1161
      2 C         142.4519  139.9940  158.0269 C.3     1  UNL1        0.0510
      3 C         141.9014  140.9459  159.0471 C.2     1  UNL1       -0.0044
      4 C         141.3999  140.4279  160.3624 C.2     1  UNL1        0.0689
      5 N         140.9157  141.5976  161.1670 N.2     1  UNL1       -0.2526
      6 C         141.1180  142.8385  160.3490 C.2     1  UNL1        0.0627
      7 C         140.8262  144.2831  160.6278 C.3     1  UNL1        0.0717
      8 C         141.1436  145.3250  159.5965 C.2     1  UNL1       -0.0198
      9 C         141.7528  144.9222  158.2863 C.2     1  UNL1       -0.0042
     10 C         142.0446  143.4776  158.0074 C.2     1  UNL1        0.0006
     11 C         141.7272  142.4357  159.0387 C.2     1  UNL1        0.0111
     12 C         141.4489  138.9580  160.6575 C.3     1  UNL1        0.0948
     13 N         141.9994  138.0061  159.6373 N.3     1  UNL1       -0.2887
     14 H         141.2576  137.3382  159.4272 H       1  UNL1        0.1239
     15 C         143.5439  135.5398  156.0700 C.ar    1  UNL1        0.0769
     16 C         144.2532  136.6752  155.3934 C.ar    1  UNL1        0.1171
     17 N         143.9488  137.9314  156.1546 N.ar    1  UNL1       -0.2282
     18 C         143.0514  137.5723  157.3017 C.ar    1  UNL1        0.1318
     19 N         142.8012  136.0942  157.2494 N.ar    1  UNL1       -0.3397
     20 H         142.2468  135.5786  157.8787 H       1  UNL1        0.1671
     21 C         143.6294  131.2274  154.7871 C.ar    1  UNL1        0.0000
     22 C         144.4143  131.6687  155.9867 C.ar    1  UNL1        0.0000
     23 C         144.3858  133.1061  156.4143 C.ar    1  UNL1        0.0015
     24 C         143.5724  134.1023  155.6423 C.ar    1  UNL1        0.0172
     25 C         142.7875  133.6611  154.4427 C.ar    1  UNL1        0.0015
     26 C         142.8159  132.2236  154.0151 C.ar    1  UNL1        0.0000
     27 C         140.9474  138.4399  161.9729 C.3     1  UNL1        0.0219
     28 C         141.9207  138.0039  163.0275 C.3     1  UNL1        0.0134
     29 C         141.4191  137.4858  164.3429 C.3     1  UNL1        0.0576
     30 S         139.9442  137.4039  164.6035 S.3     1  UNL1       -0.1403
     31 C         138.9709  137.8400  163.5488 C.3     1  UNL1        0.0576
     32 C         139.4724  138.3580  162.2336 C.3     1  UNL1        0.0134
@<TRIPOS>BOND
     1    21    22   ar
     2    22    23   ar
     3    23    24   ar
     4    24    15    1
     5    15    16   ar
     6    16    17   ar
     7    17    18   ar
     8     1    18    1
     9     1     2    1
    10     2     3    1
    11     3     4    2
    12     4     5    1
    13     5     6    2
    14     6     7    1
    15     7     8    1
    16     8     9    2
    17     9    10    1
    18    10    11    2
    19     4    12    1
    20    12    27    1
    21    27    28    1
    22    28    29    1
    23    29    30    1
    24    30    31    1
    25    31    32    1
    26    12    13    1
    27    18    19   ar
    28    24    25   ar
    29    25    26   ar
    30    26    21   ar
    31    19    15   ar
    32    13     1    1
    33    11     3    1
    34    32    27    1
    35    11     6    1
    36    13    14    1
    37    19    20    1
