@<TRIPOS>MOLECULE
*****
 19 20 0 0 0
SMALL
GASTEIGER

@<TRIPOS>ATOM
      1 N         140.6167  140.6081  165.7235 N.am    1  UNL1       -0.2833
      2 C         140.2041  140.4959  167.1612 C.2     1  UNL1        0.2406
      3 O         139.0635  139.6012  167.5466 O.2     1  UNL1       -0.2733
      4 H         141.3653  141.1953  165.4705 H       1  UNL1        0.1549
      5 C         138.1788  141.7647  164.4121 C.3     1  UNL1        0.0323
      6 C         138.6696  140.4039  164.0154 C.ar    1  UNL1       -0.0087
      7 C         137.9415  139.6215  162.9630 C.ar    1  UNL1       -0.0031
      8 C         138.4323  138.2607  162.5662 C.ar    1  UNL1       -0.0006
      9 C         139.6512  137.6824  163.2219 C.ar    1  UNL1       -0.0031
     10 C         140.3793  138.4649  164.2742 C.ar    1  UNL1       -0.0087
     11 C         141.5982  137.8866  164.9299 C.3     1  UNL1        0.0323
     12 C         139.8885  139.8256  164.6710 C.ar    1  UNL1        0.0423
     13 C         140.9322  141.2783  168.2137 C.3     1  UNL1        0.1351
     14 C         140.4130  142.6175  168.6462 C.3     1  UNL1        0.0254
     15 C         141.1412  143.3999  169.6987 C.3     1  UNL1        0.0033
     16 C         142.3885  142.8432  170.3186 C.3     1  UNL1        0.0174
     17 C         142.9077  141.5040  169.8860 C.3     1  UNL1        0.0725
     18 N         142.1796  140.7216  168.8336 N.3     1  UNL1       -0.2653
     19 C         142.6988  139.3824  168.4011 C.3     1  UNL1        0.0900
@<TRIPOS>BOND
     1     5     6    1
     2     6     7   ar
     3     7     8   ar
     4     8     9   ar
     5     9    10   ar
     6    10    11    1
     7    10    12   ar
     8    12     1    1
     9     1     2   am
    10     2     3    2
    11     2    13    1
    12    13    14    1
    13    14    15    1
    14    15    16    1
    15    16    17    1
    16    17    18    1
    17    18    19    1
    18    12     6   ar
    19    18    13    1
    20     1     4    1
@<TRIPOS>MOLECULE
*****
 19 20 0 0 0
SMALL
GASTEIGER

@<TRIPOS>ATOM
      1 N         140.6141  140.6142  165.7213 N.am    1  UNL1       -0.2833
      2 C         140.2015  140.5110  167.1597 C.2     1  UNL1        0.2406
      3 O         139.0579  139.6221  167.5500 O.2     1  UNL1       -0.2733
      4 H         141.3646  141.1976  165.4651 H       1  UNL1        0.1549
      5 C         141.5865  137.8853  164.9419 C.3     1  UNL1        0.0323
      6 C         140.3694  138.4641  164.2835 C.ar    1  UNL1       -0.0087
      7 C         139.6385  137.6785  163.2354 C.ar    1  UNL1       -0.0031
      8 C         138.4214  138.2574  162.5769 C.ar    1  UNL1       -0.0006
      9 C         137.9352  139.6218  162.9666 C.ar    1  UNL1       -0.0031
     10 C         138.6661  140.4074  164.0147 C.ar    1  UNL1       -0.0087
     11 C         138.1799  141.7719  164.4044 C.3     1  UNL1        0.0323
     12 C         139.8832  139.8286  164.6731 C.ar    1  UNL1        0.0423
     13 C         140.9323  141.2966  168.2079 C.3     1  UNL1        0.1351
     14 C         140.4121  142.6354  168.6405 C.3     1  UNL1        0.0254
     15 C         141.1430  143.4210  169.6887 C.3     1  UNL1        0.0033
     16 C         142.3941  142.8679  170.3042 C.3     1  UNL1        0.0174
     17 C         142.9143  141.5292  169.8715 C.3     1  UNL1        0.0725
     18 N         142.1835  140.7435  168.8234 N.3     1  UNL1       -0.2653
     19 C         142.7037  139.4048  168.3907 C.3     1  UNL1        0.0900
@<TRIPOS>BOND
     1     5     6    1
     2     6     7   ar
     3     7     8   ar
     4     8     9   ar
     5     9    10   ar
     6    10    11    1
     7    10    12   ar
     8    12     1    1
     9     1     2   am
    10     2     3    2
    11     2    13    1
    12    13    14    1
    13    14    15    1
    14    15    16    1
    15    16    17    1
    16    17    18    1
    17    18    19    1
    18    12     6   ar
    19    18    13    1
    20     1     4    1
@<TRIPOS>MOLECULE
*****
 19 20 0 0 0
SMALL
GASTEIGER

@<TRIPOS>ATOM
      1 N         141.7217  140.8012  166.7401 N.am    1  UNL1       -0.2833
      2 C         142.6972  139.7090  166.4157 C.2     1  UNL1        0.2406
      3 O         143.2048  138.8092  167.5034 O.2     1  UNL1       -0.2733
      4 H         141.3885  141.3917  166.0263 H       1  UNL1        0.1549
      5 C         139.1066  139.6285  167.6269 C.3     1  UNL1        0.0323
      6 C         139.9462  140.4074  168.5956 C.ar    1  UNL1       -0.0087
      7 C         139.4783  140.6000  170.0076 C.ar    1  UNL1       -0.0031
      8 C         140.3179  141.3789  170.9764 C.ar    1  UNL1       -0.0006
      9 C         141.6254  141.9652  170.5330 C.ar    1  UNL1       -0.0031
     10 C         142.0933  141.7726  169.1210 C.ar    1  UNL1       -0.0087
     11 C         143.4009  142.3590  168.6776 C.3     1  UNL1        0.0323
     12 C         141.2537  140.9938  168.1523 C.ar    1  UNL1        0.0423
     13 C         143.1652  139.5164  165.0037 C.3     1  UNL1        0.1351
     14 C         144.2720  140.3688  164.4575 C.3     1  UNL1        0.0254
     15 C         144.7400  140.1762  163.0454 C.3     1  UNL1        0.0033
     16 C         144.1012  139.1312  162.1795 C.3     1  UNL1        0.0174
     17 C         142.9943  138.2788  162.7257 C.3     1  UNL1        0.0725
     18 N         142.5264  138.4714  164.1377 N.3     1  UNL1       -0.2653
     19 C         141.4195  137.6189  164.6838 C.3     1  UNL1        0.0900
@<TRIPOS>BOND
     1     5     6    1
     2     6     7   ar
     3     7     8   ar
     4     8     9   ar
     5     9    10   ar
     6    10    11    1
     7    10    12   ar
     8    12     1    1
     9     1     2   am
    10     2     3    2
    11     2    13    1
    12    13    14    1
    13    14    15    1
    14    15    16    1
    15    16    17    1
    16    17    18    1
    17    18    19    1
    18    12     6   ar
    19    18    13    1
    20     1     4    1
@<TRIPOS>MOLECULE
*****
 19 20 0 0 0
SMALL
GASTEIGER

@<TRIPOS>ATOM
      1 N         141.6555  140.7766  166.6712 N.am    1  UNL1       -0.2833
      2 C         142.6535  139.6994  166.3647 C.2     1  UNL1        0.2406
      3 O         143.1820  138.8309  167.4676 O.2     1  UNL1       -0.2733
      4 H         141.3086  141.3466  165.9474 H       1  UNL1        0.1549
      5 C         143.3251  142.3699  168.5879 C.3     1  UNL1        0.0323
      6 C         142.0210  141.7818  169.0389 C.ar    1  UNL1       -0.0087
      7 C         141.5516  141.9903  170.4482 C.ar    1  UNL1       -0.0031
      8 C         140.2475  141.4023  170.8992 C.ar    1  UNL1       -0.0006
      9 C         139.4127  140.6056  169.9408 C.ar    1  UNL1       -0.0031
     10 C         139.8821  140.3971  168.5315 C.ar    1  UNL1       -0.0087
     11 C         139.0472  139.6004  167.5731 C.3     1  UNL1        0.0323
     12 C         141.1862  140.9851  168.0806 C.ar    1  UNL1        0.0423
     13 C         143.1228  139.4908  164.9554 C.3     1  UNL1        0.1351
     14 C         144.2211  140.3459  164.3963 C.3     1  UNL1        0.0254
     15 C         144.6904  140.1372  162.9870 C.3     1  UNL1        0.0033
     16 C         144.0615  139.0735  162.1367 C.3     1  UNL1        0.0174
     17 C         142.9632  138.2184  162.6958 C.3     1  UNL1        0.0725
     18 N         142.4939  138.4270  164.1051 N.3     1  UNL1       -0.2653
     19 C         141.3956  137.5719  164.6642 C.3     1  UNL1        0.0900
@<TRIPOS>BOND
     1     5     6    1
     2     6     7   ar
     3     7     8   ar
     4     8     9   ar
     5     9    10   ar
     6    10    11    1
     7    10    12   ar
     8    12     1    1
     9     1     2   am
    10     2     3    2
    11     2    13    1
    12    13    14    1
    13    14    15    1
    14    15    16    1
    15    16    17    1
    16    17    18    1
    17    18    19    1
    18    12     6   ar
    19    18    13    1
    20     1     4    1
@<TRIPOS>MOLECULE
*****
 19 20 0 0 0
SMALL
GASTEIGER

@<TRIPOS>ATOM
      1 N         141.2594  139.2540  166.6017 N.am    1  UNL1       -0.2833
      2 C         141.1417  140.7257  166.8667 C.2     1  UNL1        0.2406
      3 O         140.5735  141.6337  165.8165 O.2     1  UNL1       -0.2733
      4 H         141.6323  138.6580  167.2910 H       1  UNL1        0.1549
      5 C         143.2540  138.7761  164.4124 C.3     1  UNL1        0.0323
      6 C         141.8063  138.4513  164.1920 C.ar    1  UNL1       -0.0087
      7 C         141.3558  137.8877  162.8770 C.ar    1  UNL1       -0.0031
      8 C         139.9081  137.5629  162.6566 C.ar    1  UNL1       -0.0006
      9 C         138.9108  137.8019  163.7513 C.ar    1  UNL1       -0.0031
     10 C         139.3612  138.3655  165.0663 C.ar    1  UNL1       -0.0087
     11 C         138.3639  138.6045  166.1610 C.3     1  UNL1        0.0323
     12 C         140.8090  138.6903  165.2866 C.ar    1  UNL1        0.0423
     13 C         141.5921  141.2895  168.1817 C.3     1  UNL1        0.1351
     14 C         142.9193  141.9806  168.2863 C.3     1  UNL1        0.0254
     15 C         143.3696  142.5444  169.6014 C.3     1  UNL1        0.0033
     16 C         142.4929  142.4169  170.8118 C.3     1  UNL1        0.0174
     17 C         141.1657  141.7258  170.7071 C.3     1  UNL1        0.0725
     18 N         140.7153  141.1620  169.3921 N.3     1  UNL1       -0.2653
     19 C         139.3882  140.4709  169.2875 C.3     1  UNL1        0.0900
@<TRIPOS>BOND
     1     5     6    1
     2     6     7   ar
     3     7     8   ar
     4     8     9   ar
     5     9    10   ar
     6    10    11    1
     7    10    12   ar
     8    12     1    1
     9     1     2   am
    10     2     3    2
    11     2    13    1
    12    13    14    1
    13    14    15    1
    14    15    16    1
    15    16    17    1
    16    17    18    1
    17    18    19    1
    18    12     6   ar
    19    18    13    1
    20     1     4    1
@<TRIPOS>MOLECULE
*****
 19 20 0 0 0
SMALL
GASTEIGER

@<TRIPOS>ATOM
      1 N         142.9217  141.2592  166.6058 N.am    1  UNL1       -0.2833
      2 C         141.5274  141.8076  166.6780 C.2     1  UNL1        0.2406
      3 O         140.8128  142.2077  165.4213 O.2     1  UNL1       -0.2733
      4 H         143.3907  140.9966  167.4306 H       1  UNL1        0.1549
      5 C         144.4720  143.5526  165.4495 C.3     1  UNL1        0.0323
      6 C         144.3765  142.2575  164.6987 C.ar    1  UNL1       -0.0087
      7 C         145.0561  142.1091  163.3698 C.ar    1  UNL1       -0.0031
      8 C         144.9606  140.8140  162.6190 C.ar    1  UNL1       -0.0006
      9 C         144.1854  139.6674  163.1971 C.ar    1  UNL1       -0.0031
     10 C         143.5058  139.8158  164.5261 C.ar    1  UNL1       -0.0087
     11 C         142.7307  138.6691  165.1043 C.3     1  UNL1        0.0323
     12 C         143.6014  141.1108  165.2768 C.ar    1  UNL1        0.0423
     13 C         140.8477  141.9560  168.0069 C.3     1  UNL1        0.1351
     14 C         141.1021  143.1718  168.8479 C.3     1  UNL1        0.0254
     15 C         140.4224  143.3201  170.1768 C.3     1  UNL1        0.0033
     16 C         139.4883  142.2527  170.6648 C.3     1  UNL1        0.0174
     17 C         139.2339  141.0369  169.8238 C.3     1  UNL1        0.0725
     18 N         139.9136  140.8886  168.4949 N.3     1  UNL1       -0.2653
     19 C         139.6592  139.6728  167.6540 C.3     1  UNL1        0.0900
@<TRIPOS>BOND
     1     5     6    1
     2     6     7   ar
     3     7     8   ar
     4     8     9   ar
     5     9    10   ar
     6    10    11    1
     7    10    12   ar
     8    12     1    1
     9     1     2   am
    10     2     3    2
    11     2    13    1
    12    13    14    1
    13    14    15    1
    14    15    16    1
    15    16    17    1
    16    17    18    1
    17    18    19    1
    18    12     6   ar
    19    18    13    1
    20     1     4    1
@<TRIPOS>MOLECULE
*****
 19 20 0 0 0
SMALL
GASTEIGER

@<TRIPOS>ATOM
      1 N         140.8551  139.9539  164.8844 N.am    1  UNL1       -0.2833
      2 C         142.2810  139.7362  165.2958 C.2     1  UNL1        0.2406
      3 O         142.6065  138.7554  166.3831 O.2     1  UNL1       -0.2733
      4 H         140.6414  140.5976  164.1708 H       1  UNL1        0.1549
      5 C         139.7172  140.9431  167.4780 C.3     1  UNL1        0.0323
      6 C         139.1857  139.6854  166.8570 C.ar    1  UNL1       -0.0087
      7 C         138.0854  138.9223  167.5328 C.ar    1  UNL1       -0.0031
      8 C         137.5539  137.6645  166.9119 C.ar    1  UNL1       -0.0006
      9 C         138.1227  137.1699  165.6151 C.ar    1  UNL1       -0.0031
     10 C         139.2231  137.9330  164.9393 C.ar    1  UNL1       -0.0087
     11 C         139.7921  137.4384  163.6424 C.3     1  UNL1        0.0323
     12 C         139.7546  139.1908  165.5603 C.ar    1  UNL1        0.0423
     13 C         143.3814  140.4993  164.6200 C.3     1  UNL1        0.1351
     14 C         144.0231  139.9503  163.3803 C.3     1  UNL1        0.0254
     15 C         145.1236  140.7134  162.7045 C.3     1  UNL1        0.0033
     16 C         145.5823  142.0255  163.2684 C.3     1  UNL1        0.0174
     17 C         144.9406  142.5745  164.5080 C.3     1  UNL1        0.0725
     18 N         143.8402  141.8114  165.1839 N.3     1  UNL1       -0.2653
     19 C         143.1985  142.3604  166.4236 C.3     1  UNL1        0.0900
@<TRIPOS>BOND
     1     5     6    1
     2     6     7   ar
     3     7     8   ar
     4     8     9   ar
     5     9    10   ar
     6    10    11    1
     7    10    12   ar
     8    12     1    1
     9     1     2   am
    10     2     3    2
    11     2    13    1
    12    13    14    1
    13    14    15    1
    14    15    16    1
    15    16    17    1
    16    17    18    1
    17    18    19    1
    18    12     6   ar
    19    18    13    1
    20     1     4    1
@<TRIPOS>MOLECULE
*****
 19 20 0 0 0
SMALL
GASTEIGER

@<TRIPOS>ATOM
      1 N         141.6874  140.4341  165.6946 N.am    1  UNL1       -0.2833
      2 C         141.9600  139.9726  167.0956 C.2     1  UNL1        0.2406
      3 O         142.9503  138.8736  167.3438 O.2     1  UNL1       -0.2733
      4 H         141.0375  141.1554  165.5316 H       1  UNL1        0.1549
      5 C         140.5359  138.0001  164.3718 C.3     1  UNL1        0.0323
      6 C         141.8292  138.5796  163.8805 C.ar    1  UNL1       -0.0087
      7 C         142.5469  137.9421  162.7279 C.ar    1  UNL1       -0.0031
      8 C         143.8403  138.5216  162.2367 C.ar    1  UNL1       -0.0006
      9 C         144.4160  139.7386  162.8980 C.ar    1  UNL1       -0.0031
     10 C         143.6984  140.3761  164.0506 C.ar    1  UNL1       -0.0087
     11 C         144.2742  141.5931  164.7121 C.3     1  UNL1        0.0323
     12 C         142.4050  139.7966  164.5419 C.ar    1  UNL1        0.0423
     13 C         141.2424  140.6101  168.2482 C.3     1  UNL1        0.1351
     14 C         139.9199  140.0665  168.7015 C.3     1  UNL1        0.0254
     15 C         139.2024  140.7041  169.8543 C.3     1  UNL1        0.0033
     16 C         139.8073  141.8851  170.5536 C.3     1  UNL1        0.0174
     17 C         141.1298  142.4287  170.1003 C.3     1  UNL1        0.0725
     18 N         141.8474  141.7912  168.9476 N.3     1  UNL1       -0.2653
     19 C         143.1699  142.3348  168.4943 C.3     1  UNL1        0.0900
@<TRIPOS>BOND
     1     5     6    1
     2     6     7   ar
     3     7     8   ar
     4     8     9   ar
     5     9    10   ar
     6    10    11    1
     7    10    12   ar
     8    12     1    1
     9     1     2   am
    10     2     3    2
    11     2    13    1
    12    13    14    1
    13    14    15    1
    14    15    16    1
    15    16    17    1
    16    17    18    1
    17    18    19    1
    18    12     6   ar
    19    18    13    1
    20     1     4    1
@<TRIPOS>MOLECULE
*****
 19 20 0 0 0
SMALL
GASTEIGER

@<TRIPOS>ATOM
      1 N         142.1653  140.5915  165.9102 N.am    1  UNL1       -0.2833
      2 C         142.5658  140.1371  167.2825 C.2     1  UNL1        0.2406
      3 O         143.2854  138.8330  167.4605 O.2     1  UNL1       -0.2733
      4 H         141.6930  141.4474  165.7933 H       1  UNL1        0.1549
      5 C         144.6911  141.0671  164.3628 C.3     1  UNL1        0.0323
      6 C         143.7474  139.9796  163.9423 C.ar    1  UNL1       -0.0087
      7 C         144.0665  139.1300  162.7481 C.ar    1  UNL1       -0.0031
      8 C         143.1228  138.0425  162.3275 C.ar    1  UNL1       -0.0006
      9 C         141.8600  137.8047  163.1012 C.ar    1  UNL1       -0.0031
     10 C         141.5409  138.6543  164.2954 C.ar    1  UNL1       -0.0087
     11 C         140.2780  138.4165  165.0692 C.3     1  UNL1        0.0323
     12 C         142.4845  139.7418  164.7159 C.ar    1  UNL1        0.0423
     13 C         142.2466  140.9867  168.4767 C.3     1  UNL1        0.1351
     14 C         143.2931  141.8936  169.0533 C.3     1  UNL1        0.0254
     15 C         142.9738  142.7433  170.2476 C.3     1  UNL1        0.0033
     16 C         141.6082  142.6860  170.8653 C.3     1  UNL1        0.0174
     17 C         140.5617  141.7790  170.2888 C.3     1  UNL1        0.0725
     18 N         140.8809  140.9294  169.0946 N.3     1  UNL1       -0.2653
     19 C         139.8344  140.0225  168.5180 C.3     1  UNL1        0.0900
@<TRIPOS>BOND
     1     5     6    1
     2     6     7   ar
     3     7     8   ar
     4     8     9   ar
     5     9    10   ar
     6    10    11    1
     7    10    12   ar
     8    12     1    1
     9     1     2   am
    10     2     3    2
    11     2    13    1
    12    13    14    1
    13    14    15    1
    14    15    16    1
    15    16    17    1
    16    17    18    1
    17    18    19    1
    18    12     6   ar
    19    18    13    1
    20     1     4    1
