@<TRIPOS>MOLECULE
*****
 28 30 0 0 0
SMALL
GASTEIGER

@<TRIPOS>ATOM
      1 N         138.4999  143.4376  162.4990 N.3     1  UNL1       -0.2724
      2 C         137.6893  142.5394  163.3857 C.3     1  UNL1        0.0721
      3 C         137.3599  141.1452  162.9409 C.3     1  UNL1        0.0174
      4 C         137.8411  140.6493  161.6095 C.3     1  UNL1        0.0031
      5 C         138.6518  141.5475  160.7230 C.3     1  UNL1        0.0174
      6 C         138.9812  142.9417  161.1677 C.3     1  UNL1        0.0721
      7 C         138.8293  144.8318  162.9438 C.3     1  UNL1        0.0768
      8 C         139.6615  145.0502  164.1725 C.3     1  UNL1        0.0437
      9 C         143.7814  143.2610  164.4471 C.ar    1  UNL1        0.1387
     10 C         143.5912  144.6146  163.8294 C.ar    1  UNL1        0.0366
     11 C         142.2179  145.2110  163.7379 C.ar    1  UNL1       -0.0011
     12 C         141.0348  144.4538  164.2640 C.ar    1  UNL1       -0.0206
     13 C         141.2250  143.1002  164.8817 C.ar    1  UNL1       -0.0011
     14 C         142.5983  142.5038  164.9732 C.ar    1  UNL1        0.0366
     15 C         145.6700  141.7948  163.4305 C.3     1  UNL1        0.2525
     16 O         145.1547  142.6647  164.5386 O.3     1  UNL1       -0.4714
     17 C         137.5117  139.2551  161.1648 C.3     1  UNL1        0.0049
     18 C         138.0265  138.0791  161.9407 C.3     1  UNL1        0.0294
     19 C         139.4730  138.0138  162.3321 C.ar    1  UNL1        0.0118
     20 C         140.5398  138.1564  161.2873 C.ar    1  UNL1       -0.0013
     21 C         141.9864  138.0911  161.6787 C.ar    1  UNL1       -0.0001
     22 C         142.3662  137.8833  163.1148 C.ar    1  UNL1        0.0031
     23 C         141.2994  137.7407  164.1597 C.ar    1  UNL1        0.0366
     24 C         139.8528  137.8059  163.7683 C.ar    1  UNL1        0.1346
     25 O         138.7860  137.6633  164.8131 O.3     1  UNL1       -0.4727
     26 C         138.3987  138.8426  165.6552 C.3     1  UNL1        0.2434
     27 C         137.7786  138.6294  167.0044 C.3     1  UNL1        0.2403
     28 F         136.8738  137.4559  167.2370 F       1  UNL1       -0.2302
@<TRIPOS>BOND
     1    15    16    1
     2    16     9    1
     3     9    10   ar
     4    10    11   ar
     5    11    12   ar
     6    12     8    1
     7     8     7    1
     8     7     1    1
     9     1     2    1
    10     2     3    1
    11     3     4    1
    12     4    17    1
    13    17    18    1
    14    18    19    1
    15    19    20   ar
    16    20    21   ar
    17    21    22   ar
    18    22    23   ar
    19    23    24   ar
    20    24    25    1
    21    25    26    1
    22    26    27    1
    23    27    28    1
    24     4     5    1
    25     5     6    1
    26    12    13   ar
    27    13    14   ar
    28    14     9   ar
    29     6     1    1
    30    24    19   ar
@<TRIPOS>MOLECULE
*****
 28 30 0 0 0
SMALL
GASTEIGER

@<TRIPOS>ATOM
      1 N         144.3343  139.9423  163.8377 N.3     1  UNL1       -0.2724
      2 C         143.6489  139.2730  162.6834 C.3     1  UNL1        0.0721
      3 C         142.5149  138.3233  162.9327 C.3     1  UNL1        0.0174
      4 C         142.0663  138.0430  164.3364 C.3     1  UNL1        0.0031
      5 C         142.7517  138.7123  165.4906 C.3     1  UNL1        0.0174
      6 C         143.8856  139.6619  165.2413 C.3     1  UNL1        0.0721
      7 C         145.4683  140.8920  163.5883 C.3     1  UNL1        0.0768
      8 C         145.3467  142.3295  163.9988 C.3     1  UNL1        0.0437
      9 C         141.8994  144.8103  162.5117 C.ar    1  UNL1        0.1387
     10 C         142.4370  145.0264  163.8952 C.ar    1  UNL1        0.0366
     11 C         143.5862  144.1995  164.3909 C.ar    1  UNL1       -0.0011
     12 C         144.1976  143.1565  163.5031 C.ar    1  UNL1       -0.0206
     13 C         143.6599  142.9404  162.1196 C.ar    1  UNL1       -0.0011
     14 C         142.5108  143.7673  161.6239 C.ar    1  UNL1        0.0366
     15 C         140.3064  145.5248  160.5876 C.3     1  UNL1        0.2525
     16 O         140.7502  145.6373  162.0160 O.3     1  UNL1       -0.4714
     17 C         140.9323  137.0933  164.5857 C.3     1  UNL1        0.0049
     18 C         139.5522  137.6233  164.8396 C.3     1  UNL1        0.0294
     19 C         138.8755  138.4775  163.8089 C.ar    1  UNL1        0.0118
     20 C         138.6260  137.9360  162.4325 C.ar    1  UNL1       -0.0013
     21 C         137.9493  138.7901  161.4017 C.ar    1  UNL1       -0.0001
     22 C         137.5221  140.1858  161.7473 C.ar    1  UNL1        0.0031
     23 C         137.7715  140.7274  163.1238 C.ar    1  UNL1        0.0366
     24 C         138.4482  139.8732  164.1545 C.ar    1  UNL1        0.1346
     25 O         138.6976  140.4147  165.5309 O.3     1  UNL1       -0.4727
     26 C         139.3980  141.7298  165.7039 C.3     1  UNL1        0.2434
     27 C         140.8386  141.8699  165.3098 C.3     1  UNL1        0.2403
     28 F         141.2931  141.4145  163.9548 F       1  UNL1       -0.2302
@<TRIPOS>BOND
     1    15    16    1
     2    16     9    1
     3     9    10   ar
     4    10    11   ar
     5    11    12   ar
     6    12     8    1
     7     8     7    1
     8     7     1    1
     9     1     2    1
    10     2     3    1
    11     3     4    1
    12     4    17    1
    13    17    18    1
    14    18    19    1
    15    19    20   ar
    16    20    21   ar
    17    21    22   ar
    18    22    23   ar
    19    23    24   ar
    20    24    25    1
    21    25    26    1
    22    26    27    1
    23    27    28    1
    24     4     5    1
    25     5     6    1
    26    12    13   ar
    27    13    14   ar
    28    14     9   ar
    29     6     1    1
    30    24    19   ar
@<TRIPOS>MOLECULE
*****
 28 30 0 0 0
SMALL
GASTEIGER

@<TRIPOS>ATOM
      1 N         141.6571  137.9253  162.0791 N.3     1  UNL1       -0.2724
      2 C         142.1609  137.7725  163.4837 C.3     1  UNL1        0.0721
      3 C         141.1893  137.6386  164.6186 C.3     1  UNL1        0.0174
      4 C         139.7138  137.6575  164.3488 C.3     1  UNL1        0.0031
      5 C         139.2101  137.8104  162.9442 C.3     1  UNL1        0.0174
      6 C         140.1817  137.9442  161.8094 C.3     1  UNL1        0.0721
      7 C         142.6288  138.0592  160.9442 C.3     1  UNL1        0.0768
      8 C         143.9782  138.6702  161.1803 C.3     1  UNL1        0.0437
      9 C         144.3298  143.0604  162.1037 C.ar    1  UNL1        0.1387
     10 C         143.7290  142.6131  160.8041 C.ar    1  UNL1        0.0366
     11 C         143.6118  141.1497  160.4964 C.ar    1  UNL1       -0.0011
     12 C         144.0954  140.1336  161.4881 C.ar    1  UNL1       -0.0206
     13 C         144.6962  140.5810  162.7877 C.ar    1  UNL1       -0.0011
     14 C         144.8134  142.0443  163.0955 C.ar    1  UNL1        0.0366
     15 C         143.7203  145.1032  163.5888 C.3     1  UNL1        0.2525
     16 O         144.4470  144.5238  162.4115 O.3     1  UNL1       -0.4714
     17 C         138.7421  137.5236  165.4837 C.3     1  UNL1        0.0049
     18 C         138.0839  138.7443  166.0554 C.3     1  UNL1        0.0294
     19 C         138.8957  139.9757  166.3286 C.ar    1  UNL1        0.0118
     20 C         139.7039  140.0770  167.5882 C.ar    1  UNL1       -0.0013
     21 C         140.5157  141.3084  167.8614 C.ar    1  UNL1       -0.0001
     22 C         140.5192  142.4385  166.8751 C.ar    1  UNL1        0.0031
     23 C         139.7110  142.3372  165.6155 C.ar    1  UNL1        0.0366
     24 C         138.8992  141.1058  165.3423 C.ar    1  UNL1        0.1346
     25 O         138.0909  141.0045  164.0827 O.3     1  UNL1       -0.4727
     26 C         138.5057  141.7708  162.8618 C.3     1  UNL1        0.2434
     27 C         137.7780  143.0261  162.4810 C.3     1  UNL1        0.2403
     28 F         137.4519  144.0506  163.5270 F       1  UNL1       -0.2302
@<TRIPOS>BOND
     1    15    16    1
     2    16     9    1
     3     9    10   ar
     4    10    11   ar
     5    11    12   ar
     6    12     8    1
     7     8     7    1
     8     7     1    1
     9     1     2    1
    10     2     3    1
    11     3     4    1
    12     4    17    1
    13    17    18    1
    14    18    19    1
    15    19    20   ar
    16    20    21   ar
    17    21    22   ar
    18    22    23   ar
    19    23    24   ar
    20    24    25    1
    21    25    26    1
    22    26    27    1
    23    27    28    1
    24     4     5    1
    25     5     6    1
    26    12    13   ar
    27    13    14   ar
    28    14     9   ar
    29     6     1    1
    30    24    19   ar
@<TRIPOS>MOLECULE
*****
 28 30 0 0 0
SMALL
GASTEIGER

@<TRIPOS>ATOM
      1 N         144.2160  140.8683  163.7027 N.3     1  UNL1       -0.2724
      2 C         143.9586  139.7480  164.6665 C.3     1  UNL1        0.0721
      3 C         143.0378  138.6270  164.2850 C.3     1  UNL1        0.0174
      4 C         142.3744  138.6263  162.9396 C.3     1  UNL1        0.0031
      5 C         142.6318  139.7466  161.9759 C.3     1  UNL1        0.0174
      6 C         143.5526  140.8675  162.3574 C.3     1  UNL1        0.0721
      7 C         145.1368  141.9892  164.0842 C.3     1  UNL1        0.0768
      8 C         144.6153  143.1519  164.8755 C.3     1  UNL1        0.0437
      9 C         140.3698  144.5335  164.3126 C.ar    1  UNL1        0.1387
     10 C         141.4881  145.2385  163.6040 C.ar    1  UNL1        0.0366
     11 C         142.9033  144.7780  163.7916 C.ar    1  UNL1       -0.0011
     12 C         143.2001  143.6124  164.6879 C.ar    1  UNL1       -0.0206
     13 C         142.0818  142.9074  165.3965 C.ar    1  UNL1       -0.0011
     14 C         140.6666  143.3680  165.2089 C.ar    1  UNL1        0.0366
     15 C         138.0962  144.3678  163.0663 C.3     1  UNL1        0.2525
     16 O         138.9546  144.9941  164.1250 O.3     1  UNL1       -0.4714
     17 C         141.4536  137.5054  162.5581 C.3     1  UNL1        0.0049
     18 C         139.9689  137.7196  162.5632 C.3     1  UNL1        0.0294
     19 C         139.3044  138.3369  163.7579 C.ar    1  UNL1        0.0118
     20 C         139.0288  137.5058  164.9757 C.ar    1  UNL1       -0.0013
     21 C         138.3642  138.1232  166.1704 C.ar    1  UNL1       -0.0001
     22 C         137.9753  139.5716  166.1472 C.ar    1  UNL1        0.0031
     23 C         138.2508  140.4028  164.9293 C.ar    1  UNL1        0.0366
     24 C         138.9154  139.7855  163.7346 C.ar    1  UNL1        0.1346
     25 O         139.1910  140.6166  162.5167 O.3     1  UNL1       -0.4727
     26 C         138.0873  140.9119  161.5449 C.3     1  UNL1        0.2434
     27 C         137.5166  139.8110  160.7008 C.3     1  UNL1        0.2403
     28 F         137.0037  138.5588  161.3480 F       1  UNL1       -0.2302
@<TRIPOS>BOND
     1    15    16    1
     2    16     9    1
     3     9    10   ar
     4    10    11   ar
     5    11    12   ar
     6    12     8    1
     7     8     7    1
     8     7     1    1
     9     1     2    1
    10     2     3    1
    11     3     4    1
    12     4    17    1
    13    17    18    1
    14    18    19    1
    15    19    20   ar
    16    20    21   ar
    17    21    22   ar
    18    22    23   ar
    19    23    24   ar
    20    24    25    1
    21    25    26    1
    22    26    27    1
    23    27    28    1
    24     4     5    1
    25     5     6    1
    26    12    13   ar
    27    13    14   ar
    28    14     9   ar
    29     6     1    1
    30    24    19   ar
@<TRIPOS>MOLECULE
*****
 28 30 0 0 0
SMALL
GASTEIGER

@<TRIPOS>ATOM
      1 N         137.8893  140.1301  162.2939 N.3     1  UNL1       -0.2724
      2 C         137.8279  140.2989  163.7832 C.3     1  UNL1        0.0721
      3 C         137.8509  141.6733  164.3837 C.3     1  UNL1        0.0174
      4 C         137.9353  142.8788  163.4951 C.3     1  UNL1        0.0031
      5 C         137.9967  142.7100  162.0059 C.3     1  UNL1        0.0174
      6 C         137.9737  141.3356  161.4053 C.3     1  UNL1        0.0721
      7 C         137.8663  138.7558  161.6933 C.3     1  UNL1        0.0768
      8 C         139.1525  138.0719  161.3358 C.3     1  UNL1        0.0437
      9 C         142.8274  138.7359  163.8467 C.ar    1  UNL1        0.1387
     10 C         141.8229  137.6965  164.2475 C.ar    1  UNL1        0.0366
     11 C         140.5980  137.4752  163.4105 C.ar    1  UNL1       -0.0011
     12 C         140.3775  138.2932  162.1728 C.ar    1  UNL1       -0.0206
     13 C         141.3819  139.3327  161.7720 C.ar    1  UNL1       -0.0011
     14 C         142.6069  139.5540  162.6090 C.ar    1  UNL1        0.0366
     15 C         145.1030  139.9283  164.2332 C.3     1  UNL1        0.2525
     16 O         144.0523  138.9572  164.6837 O.3     1  UNL1       -0.4714
     17 C         137.9583  144.2531  164.0956 C.3     1  UNL1        0.0049
     18 C         139.1542  144.7100  164.8775 C.3     1  UNL1        0.0294
     19 C         140.5244  144.2287  164.5019 C.ar    1  UNL1        0.0118
     20 C         141.1314  143.0596  165.2192 C.ar    1  UNL1       -0.0013
     21 C         142.5015  142.5783  164.8436 C.ar    1  UNL1       -0.0001
     22 C         143.2647  143.2661  163.7507 C.ar    1  UNL1        0.0031
     23 C         142.6576  144.4354  163.0334 C.ar    1  UNL1        0.0366
     24 C         141.2875  144.9167  163.4089 C.ar    1  UNL1        0.1346
     25 O         140.6805  146.0858  162.6917 O.3     1  UNL1       -0.4727
     26 C         139.8818  145.8661  161.4412 C.3     1  UNL1        0.2434
     27 C         140.5323  145.2616  160.2322 C.3     1  UNL1        0.2403
     28 F         140.8614  143.7983  160.2104 F       1  UNL1       -0.2302
@<TRIPOS>BOND
     1    15    16    1
     2    16     9    1
     3     9    10   ar
     4    10    11   ar
     5    11    12   ar
     6    12     8    1
     7     8     7    1
     8     7     1    1
     9     1     2    1
    10     2     3    1
    11     3     4    1
    12     4    17    1
    13    17    18    1
    14    18    19    1
    15    19    20   ar
    16    20    21   ar
    17    21    22   ar
    18    22    23   ar
    19    23    24   ar
    20    24    25    1
    21    25    26    1
    22    26    27    1
    23    27    28    1
    24     4     5    1
    25     5     6    1
    26    12    13   ar
    27    13    14   ar
    28    14     9   ar
    29     6     1    1
    30    24    19   ar
@<TRIPOS>MOLECULE
*****
 28 30 0 0 0
SMALL
GASTEIGER

@<TRIPOS>ATOM
      1 N         139.9380  138.0366  162.4250 N.3     1  UNL1       -0.2724
      2 C         141.3609  138.4079  162.1288 C.3     1  UNL1        0.0721
      3 C         142.3697  138.4562  163.2378 C.3     1  UNL1        0.0174
      4 C         141.9558  138.1332  164.6429 C.3     1  UNL1        0.0031
      5 C         140.5330  137.7619  164.9390 C.3     1  UNL1        0.0174
      6 C         139.5241  137.7136  163.8301 C.3     1  UNL1        0.0721
      7 C         138.9291  137.9883  161.3160 C.3     1  UNL1        0.0768
      8 C         137.6935  138.8356  161.3888 C.3     1  UNL1        0.0437
      9 C         138.0328  143.2403  162.2452 C.ar    1  UNL1        0.1387
     10 C         137.5858  142.2988  163.3239 C.ar    1  UNL1        0.0366
     11 C         137.4727  140.8305  163.0384 C.ar    1  UNL1       -0.0011
     12 C         137.8066  140.3038  161.6743 C.ar    1  UNL1       -0.0206
     13 C         138.2536  141.2453  160.5955 C.ar    1  UNL1       -0.0011
     14 C         138.3667  142.7136  160.8810 C.ar    1  UNL1        0.0366
     15 C         139.4969  145.3378  162.6999 C.3     1  UNL1        0.2525
     16 O         138.1459  144.7085  162.5307 O.3     1  UNL1       -0.4714
     17 C         142.9647  138.1815  165.7519 C.3     1  UNL1        0.0049
     18 C         143.0575  139.3948  166.6291 C.3     1  UNL1        0.0294
     19 C         142.2927  140.6358  166.2759 C.ar    1  UNL1        0.0118
     20 C         142.8940  141.6485  165.3470 C.ar    1  UNL1       -0.0013
     21 C         142.1291  142.8896  164.9938 C.ar    1  UNL1       -0.0001
     22 C         140.7630  143.1180  165.5695 C.ar    1  UNL1        0.0031
     23 C         140.1616  142.1053  166.4985 C.ar    1  UNL1        0.0366
     24 C         140.9265  140.8642  166.8516 C.ar    1  UNL1        0.1346
     25 O         140.3252  139.8516  167.7805 O.3     1  UNL1       -0.4727
     26 C         140.2272  140.1452  169.2482 C.3     1  UNL1        0.2434
     27 C         141.3536  139.7697  170.1650 C.3     1  UNL1        0.2403
     28 F         142.2951  138.6661  169.7835 F       1  UNL1       -0.2302
@<TRIPOS>BOND
     1    15    16    1
     2    16     9    1
     3     9    10   ar
     4    10    11   ar
     5    11    12   ar
     6    12     8    1
     7     8     7    1
     8     7     1    1
     9     1     2    1
    10     2     3    1
    11     3     4    1
    12     4    17    1
    13    17    18    1
    14    18    19    1
    15    19    20   ar
    16    20    21   ar
    17    21    22   ar
    18    22    23   ar
    19    23    24   ar
    20    24    25    1
    21    25    26    1
    22    26    27    1
    23    27    28    1
    24     4     5    1
    25     5     6    1
    26    12    13   ar
    27    13    14   ar
    28    14     9   ar
    29     6     1    1
    30    24    19   ar
@<TRIPOS>MOLECULE
*****
 28 30 0 0 0
SMALL
GASTEIGER

@<TRIPOS>ATOM
      1 N         144.3188  140.0298  163.8520 N.3     1  UNL1       -0.2724
      2 C         143.5363  139.6737  162.6228 C.3     1  UNL1        0.0721
      3 C         142.4173  138.6784  162.7083 C.3     1  UNL1        0.0174
      4 C         142.0808  138.0394  164.0231 C.3     1  UNL1        0.0031
      5 C         142.8633  138.3956  165.2522 C.3     1  UNL1        0.0174
      6 C         143.9823  139.3908  165.1666 C.3     1  UNL1        0.0721
      7 C         145.4379  141.0251  163.7664 C.3     1  UNL1        0.0768
      8 C         145.2399  142.4218  164.2761 C.3     1  UNL1        0.0437
      9 C         141.3777  144.5855  163.4687 C.ar    1  UNL1        0.1387
     10 C         142.5444  144.7627  162.5428 C.ar    1  UNL1        0.0366
     11 C         143.8318  144.0415  162.8120 C.ar    1  UNL1       -0.0011
     12 C         143.9525  143.1430  164.0070 C.ar    1  UNL1       -0.0206
     13 C         142.7858  142.9658  164.9329 C.ar    1  UNL1       -0.0011
     14 C         141.4984  143.6870  164.6638 C.ar    1  UNL1        0.0366
     15 C         139.9053  146.0565  161.9137 C.3     1  UNL1        0.2525
     16 O         140.0903  145.3067  163.1996 O.3     1  UNL1       -0.4714
     17 C         140.9618  137.0442  164.1086 C.3     1  UNL1        0.0049
     18 C         139.6555  137.4363  164.7331 C.3     1  UNL1        0.0294
     19 C         139.1458  138.8395  164.5874 C.ar    1  UNL1        0.0118
     20 C         139.4129  139.8499  165.6634 C.ar    1  UNL1       -0.0013
     21 C         138.9033  141.2531  165.5177 C.ar    1  UNL1       -0.0001
     22 C         138.1265  141.6460  164.2961 C.ar    1  UNL1        0.0031
     23 C         137.8594  140.6355  163.2201 C.ar    1  UNL1        0.0366
     24 C         138.3691  139.2323  163.3657 C.ar    1  UNL1        0.1346
     25 O         138.1020  138.2219  162.2898 O.3     1  UNL1       -0.4727
     26 C         139.0603  138.0739  161.1454 C.3     1  UNL1        0.2434
     27 C         139.3812  139.2552  160.2783 C.3     1  UNL1        0.2403
     28 F         140.2330  140.3683  160.8126 F       1  UNL1       -0.2302
@<TRIPOS>BOND
     1    15    16    1
     2    16     9    1
     3     9    10   ar
     4    10    11   ar
     5    11    12   ar
     6    12     8    1
     7     8     7    1
     8     7     1    1
     9     1     2    1
    10     2     3    1
    11     3     4    1
    12     4    17    1
    13    17    18    1
    14    18    19    1
    15    19    20   ar
    16    20    21   ar
    17    21    22   ar
    18    22    23   ar
    19    23    24   ar
    20    24    25    1
    21    25    26    1
    22    26    27    1
    23    27    28    1
    24     4     5    1
    25     5     6    1
    26    12    13   ar
    27    13    14   ar
    28    14     9   ar
    29     6     1    1
    30    24    19   ar
@<TRIPOS>MOLECULE
*****
 28 30 0 0 0
SMALL
GASTEIGER

@<TRIPOS>ATOM
      1 N         144.3142  140.1721  163.8196 N.3     1  UNL1       -0.2724
      2 C         144.0393  139.4500  165.1053 C.3     1  UNL1        0.0721
      3 C         142.9579  138.4124  165.1664 C.3     1  UNL1        0.0174
      4 C         142.1512  138.0969  163.9416 C.3     1  UNL1        0.0031
      5 C         142.4261  138.8190  162.6560 C.3     1  UNL1        0.0174
      6 C         143.5076  139.8566  162.5950 C.3     1  UNL1        0.0721
      7 C         145.3957  141.2098  163.7586 C.3     1  UNL1        0.0768
      8 C         145.1623  142.5715  164.3426 C.3     1  UNL1        0.0437
      9 C         141.0654  144.4245  164.1640 C.ar    1  UNL1        0.1387
     10 C         141.3634  143.3594  165.1774 C.ar    1  UNL1        0.0366
     11 C         142.7290  142.7418  165.2369 C.ar    1  UNL1       -0.0011
     12 C         143.7967  143.1892  164.2831 C.ar    1  UNL1       -0.0206
     13 C         143.4988  144.2542  163.2697 C.ar    1  UNL1       -0.0011
     14 C         142.1331  144.8718  163.2102 C.ar    1  UNL1        0.0366
     15 C         138.7526  144.8803  165.2563 C.3     1  UNL1        0.2525
     16 O         139.6998  145.0421  164.1045 O.3     1  UNL1       -0.4714
     17 C         141.0697  137.0592  164.0026 C.3     1  UNL1        0.0049
     18 C         139.7432  137.3939  164.6178 C.3     1  UNL1        0.0294
     19 C         139.1243  138.7394  164.3801 C.ar    1  UNL1        0.0118
     20 C         138.4018  139.0163  163.0951 C.ar    1  UNL1       -0.0013
     21 C         137.7829  140.3618  162.8575 C.ar    1  UNL1       -0.0001
     22 C         137.8867  141.4306  163.9048 C.ar    1  UNL1        0.0031
     23 C         138.6093  141.1538  165.1899 C.ar    1  UNL1        0.0366
     24 C         139.2281  139.8082  165.4275 C.ar    1  UNL1        0.1346
     25 O         139.9507  139.5314  166.7125 O.3     1  UNL1       -0.4727
     26 C         139.3141  139.8886  168.0229 C.3     1  UNL1        0.2434
     27 C         140.1604  140.3865  169.1569 C.3     1  UNL1        0.2403
     28 F         140.6115  139.4387  170.2284 F       1  UNL1       -0.2302
@<TRIPOS>BOND
     1    15    16    1
     2    16     9    1
     3     9    10   ar
     4    10    11   ar
     5    11    12   ar
     6    12     8    1
     7     8     7    1
     8     7     1    1
     9     1     2    1
    10     2     3    1
    11     3     4    1
    12     4    17    1
    13    17    18    1
    14    18    19    1
    15    19    20   ar
    16    20    21   ar
    17    21    22   ar
    18    22    23   ar
    19    23    24   ar
    20    24    25    1
    21    25    26    1
    22    26    27    1
    23    27    28    1
    24     4     5    1
    25     5     6    1
    26    12    13   ar
    27    13    14   ar
    28    14     9   ar
    29     6     1    1
    30    24    19   ar
@<TRIPOS>MOLECULE
*****
 28 30 0 0 0
SMALL
GASTEIGER

@<TRIPOS>ATOM
      1 N         137.8688  140.2451  162.1424 N.3     1  UNL1       -0.2724
      2 C         138.0006  141.5264  161.3736 C.3     1  UNL1        0.0721
      3 C         138.0338  142.8376  162.1013 C.3     1  UNL1        0.0174
      4 C         137.9353  142.8675  163.5979 C.3     1  UNL1        0.0031
      5 C         137.8035  141.5862  164.3665 C.3     1  UNL1        0.0174
      6 C         137.7703  140.2750  163.6388 C.3     1  UNL1        0.0721
      7 C         137.8356  138.9339  161.4146 C.3     1  UNL1        0.0768
      8 C         139.1001  138.1502  161.2230 C.3     1  UNL1        0.0437
      9 C         142.4553  138.5301  164.1976 C.ar    1  UNL1        0.1387
     10 C         142.4310  139.4041  162.9788 C.ar    1  UNL1        0.0366
     11 C         141.3126  139.2774  161.9872 C.ar    1  UNL1       -0.0011
     12 C         140.2185  138.2768  162.2145 C.ar    1  UNL1       -0.0206
     13 C         140.2428  137.4029  163.4333 C.ar    1  UNL1       -0.0011
     14 C         141.3612  137.5295  164.4249 C.ar    1  UNL1        0.0366
     15 C         143.2734  138.6892  166.6584 C.3     1  UNL1        0.2525
     16 O         143.5737  138.6567  165.1891 O.3     1  UNL1       -0.4714
     17 C         137.9685  144.1787  164.3256 C.3     1  UNL1        0.0049
     18 C         139.0827  144.4760  165.2849 C.3     1  UNL1        0.0294
     19 C         140.4385  143.8713  165.0703 C.ar    1  UNL1        0.0118
     20 C         141.2871  144.3220  163.9185 C.ar    1  UNL1       -0.0013
     21 C         142.6429  143.7173  163.7039 C.ar    1  UNL1       -0.0001
     22 C         143.1501  142.6617  164.6411 C.ar    1  UNL1        0.0031
     23 C         142.3016  142.2109  165.7930 C.ar    1  UNL1        0.0366
     24 C         140.9458  142.8157  166.0076 C.ar    1  UNL1        0.1346
     25 O         140.0973  142.3649  167.1594 O.3     1  UNL1       -0.4727
     26 C         140.2139  140.9601  167.6722 C.3     1  UNL1        0.2434
     27 C         139.6905  139.8171  166.8539 C.3     1  UNL1        0.2403
     28 F         138.4177  139.1305  167.2522 F       1  UNL1       -0.2302
@<TRIPOS>BOND
     1    15    16    1
     2    16     9    1
     3     9    10   ar
     4    10    11   ar
     5    11    12   ar
     6    12     8    1
     7     8     7    1
     8     7     1    1
     9     1     2    1
    10     2     3    1
    11     3     4    1
    12     4    17    1
    13    17    18    1
    14    18    19    1
    15    19    20   ar
    16    20    21   ar
    17    21    22   ar
    18    22    23   ar
    19    23    24   ar
    20    24    25    1
    21    25    26    1
    22    26    27    1
    23    27    28    1
    24     4     5    1
    25     5     6    1
    26    12    13   ar
    27    13    14   ar
    28    14     9   ar
    29     6     1    1
    30    24    19   ar
