@<TRIPOS>MOLECULE
*****
 27 29 0 0 0
SMALL
GASTEIGER

@<TRIPOS>ATOM
      1 C         139.9788  141.1268  167.3339 C.ar    1  UNL1        0.0536
      2 C         139.2385  139.8360  167.1446 C.ar    1  UNL1        0.0076
      3 C         138.4152  139.6177  165.9099 C.ar    1  UNL1        0.0371
      4 C         138.3321  140.6902  164.8645 C.ar    1  UNL1        0.1406
      5 C         139.0724  141.9809  165.0538 C.ar    1  UNL1        0.0551
      6 C         139.8957  142.1992  166.2885 C.ar    1  UNL1        0.0091
      7 C         138.9893  143.0535  164.0084 C.ar    1  UNL1        0.1261
      8 C         140.1328  143.5802  163.1929 C.ar    1  UNL1        0.1177
      9 N         139.5985  144.6399  162.2754 N.ar    1  UNL1       -0.2282
     10 C         140.3976  145.4322  161.2837 C.3     1  UNL1        0.1556
     11 N         138.1248  144.7680  162.5240 N.ar    1  UNL1       -0.0637
     12 N         137.7483  143.7876  163.5950 N.ar    1  UNL1       -0.1286
     13 N         141.7159  142.5310  168.6607 N.am    1  UNL1       -0.3009
     14 C         140.8021  141.3451  168.5686 C.2     1  UNL1        0.2458
     15 O         140.7116  140.3774  169.7111 O.2     1  UNL1       -0.2701
     16 H         141.7752  143.1661  167.9108 H       1  UNL1        0.1497
     17 C         144.0060  142.4352  169.8840 C.3     1  UNL1        0.0230
     18 C         142.5392  142.7493  169.8954 C.3     1  UNL1        0.0898
     19 O         137.5088  140.4719  163.6298 O.3     1  UNL1       -0.4689
     20 C         138.0878  139.7259  162.4644 C.3     1  UNL1        0.2508
     21 C         139.4676  139.1448  162.5566 C.ar    1  UNL1        0.1022
     22 C         139.6611  137.7503  163.0740 C.ar    1  UNL1        0.0184
     23 C         141.0409  137.1692  163.1661 C.ar    1  UNL1        0.0025
     24 C         142.2272  137.9828  162.7409 C.ar    1  UNL1        0.0147
     25 C         142.0338  139.3774  162.2235 C.ar    1  UNL1        0.0591
     26 C         143.2201  140.1909  161.7983 C.3     1  UNL1        0.0521
     27 N         140.6539  139.9584  162.1314 N.ar    1  UNL1       -0.2503
@<TRIPOS>BOND
     1    17    18    1
     2    18    13    1
     3    13    14   am
     4    14    15    2
     5    14     1    1
     6     1     2   ar
     7     2     3   ar
     8     3     4   ar
     9     4    19    1
    10    19    20    1
    11    20    21    1
    12    21    22   ar
    13    22    23   ar
    14    23    24   ar
    15    24    25   ar
    16    25    26    1
    17    25    27   ar
    18     4     5   ar
    19     5     7    1
    20     7     8   ar
    21     8     9   ar
    22     9    10    1
    23     9    11   ar
    24    11    12   ar
    25     5     6   ar
    26     6     1   ar
    27    27    21   ar
    28    12     7   ar
    29    13    16    1
@<TRIPOS>MOLECULE
*****
 27 29 0 0 0
SMALL
GASTEIGER

@<TRIPOS>ATOM
      1 C         138.6577  139.1270  165.7869 C.ar    1  UNL1        0.0536
      2 C         138.8164  137.7731  165.1610 C.ar    1  UNL1        0.0076
      3 C         138.9632  137.6470  163.6736 C.ar    1  UNL1        0.0371
      4 C         138.9514  138.8748  162.8120 C.ar    1  UNL1        0.1406
      5 C         138.7928  140.2287  163.4379 C.ar    1  UNL1        0.0551
      6 C         138.6459  140.3548  164.9254 C.ar    1  UNL1        0.0091
      7 C         138.7810  141.4566  162.5763 C.ar    1  UNL1        0.1261
      8 C         139.8810  142.4710  162.4719 C.ar    1  UNL1        0.1177
      9 N         139.4470  143.5269  161.4990 N.ar    1  UNL1       -0.2282
     10 C         140.2418  144.7329  161.0940 C.3     1  UNL1        0.1556
     11 N         138.0787  143.1651  161.0021 N.ar    1  UNL1       -0.0637
     12 N         137.6671  141.8856  161.6680 N.ar    1  UNL1       -0.1286
     13 N         139.4150  140.1713  168.0421 N.am    1  UNL1       -0.3009
     14 C         138.5109  139.2531  167.2744 C.2     1  UNL1        0.2458
     15 O         137.4600  138.4610  167.9941 O.2     1  UNL1       -0.2701
     16 H         140.1048  140.6912  167.5697 H       1  UNL1        0.1497
     17 C         139.8100  141.5040  170.2371 C.3     1  UNL1        0.0230
     18 C         139.2682  140.2974  169.5296 C.3     1  UNL1        0.0898
     19 O         139.0983  138.7487  161.3245 O.3     1  UNL1       -0.4689
     20 C         140.4189  138.3554  160.7319 C.3     1  UNL1        0.2508
     21 C         141.6882  138.9466  161.2698 C.ar    1  UNL1        0.1022
     22 C         142.5199  138.1728  162.2492 C.ar    1  UNL1        0.0184
     23 C         143.7892  138.7640  162.7871 C.ar    1  UNL1        0.0025
     24 C         144.2268  140.1291  162.3455 C.ar    1  UNL1        0.0147
     25 C         143.3951  140.9030  161.3660 C.ar    1  UNL1        0.0591
     26 C         143.8327  142.2681  160.9244 C.3     1  UNL1        0.0521
     27 N         142.1258  140.3118  160.8281 N.ar    1  UNL1       -0.2503
@<TRIPOS>BOND
     1    17    18    1
     2    18    13    1
     3    13    14   am
     4    14    15    2
     5    14     1    1
     6     1     2   ar
     7     2     3   ar
     8     3     4   ar
     9     4    19    1
    10    19    20    1
    11    20    21    1
    12    21    22   ar
    13    22    23   ar
    14    23    24   ar
    15    24    25   ar
    16    25    26    1
    17    25    27   ar
    18     4     5   ar
    19     5     7    1
    20     7     8   ar
    21     8     9   ar
    22     9    10    1
    23     9    11   ar
    24    11    12   ar
    25     5     6   ar
    26     6     1   ar
    27    27    21   ar
    28    12     7   ar
    29    13    16    1
@<TRIPOS>MOLECULE
*****
 27 29 0 0 0
SMALL
GASTEIGER

@<TRIPOS>ATOM
      1 C         138.6361  142.3716  163.8227 C.ar    1  UNL1        0.0536
      2 C         137.9263  141.2721  163.0897 C.ar    1  UNL1        0.0076
      3 C         137.8361  139.9030  163.6958 C.ar    1  UNL1        0.0371
      4 C         138.4557  139.6333  165.0349 C.ar    1  UNL1        0.1406
      5 C         139.1655  140.7328  165.7679 C.ar    1  UNL1        0.0551
      6 C         139.2557  142.1019  165.1618 C.ar    1  UNL1        0.0091
      7 C         139.7851  140.4632  167.1071 C.ar    1  UNL1        0.1261
      8 C         141.1918  140.7930  167.5102 C.ar    1  UNL1        0.1177
      9 N         141.3830  140.3501  168.9305 N.ar    1  UNL1       -0.2282
     10 C         142.6417  140.4868  169.7349 C.3     1  UNL1        0.1556
     11 N         140.0944  139.7464  169.4052 N.ar    1  UNL1       -0.0637
     12 N         139.1069  139.8163  168.2783 N.ar    1  UNL1       -0.1286
     13 N         140.0680  144.3532  162.9437 N.am    1  UNL1       -0.3009
     14 C         138.7263  143.7407  163.2165 C.2     1  UNL1        0.2458
     15 O         137.4747  144.4973  162.8833 O.2     1  UNL1       -0.2701
     16 H         140.8895  143.8566  163.1624 H       1  UNL1        0.1497
     17 C         140.0980  145.8885  160.8480 C.3     1  UNL1        0.0230
     18 C         140.1582  145.7223  162.3376 C.3     1  UNL1        0.0898
     19 O         138.3655  138.2642  165.6410 O.3     1  UNL1       -0.4689
     20 C         139.3890  137.2229  165.2973 C.3     1  UNL1        0.2508
     21 C         140.5777  137.5879  164.4585 C.ar    1  UNL1        0.1022
     22 C         140.5512  137.3526  162.9774 C.ar    1  UNL1        0.0184
     23 C         141.7399  137.7176  162.1385 C.ar    1  UNL1        0.0025
     24 C         142.9553  138.3177  162.7809 C.ar    1  UNL1        0.0147
     25 C         142.9819  138.5530  164.2621 C.ar    1  UNL1        0.0591
     26 C         144.1973  139.1532  164.9045 C.3     1  UNL1        0.0521
     27 N         141.7931  138.1881  165.1009 N.ar    1  UNL1       -0.2503
@<TRIPOS>BOND
     1    17    18    1
     2    18    13    1
     3    13    14   am
     4    14    15    2
     5    14     1    1
     6     1     2   ar
     7     2     3   ar
     8     3     4   ar
     9     4    19    1
    10    19    20    1
    11    20    21    1
    12    21    22   ar
    13    22    23   ar
    14    23    24   ar
    15    24    25   ar
    16    25    26    1
    17    25    27   ar
    18     4     5   ar
    19     5     7    1
    20     7     8   ar
    21     8     9   ar
    22     9    10    1
    23     9    11   ar
    24    11    12   ar
    25     5     6   ar
    26     6     1   ar
    27    27    21   ar
    28    12     7   ar
    29    13    16    1
@<TRIPOS>MOLECULE
*****
 27 29 0 0 0
SMALL
GASTEIGER

@<TRIPOS>ATOM
      1 C         139.5582  139.7670  167.3212 C.ar    1  UNL1        0.0536
      2 C         138.3164  138.9513  167.1153 C.ar    1  UNL1        0.0076
      3 C         138.0939  138.2392  165.8140 C.ar    1  UNL1        0.0371
      4 C         139.1133  138.3428  164.7185 C.ar    1  UNL1        0.1406
      5 C         140.3551  139.1586  164.9244 C.ar    1  UNL1        0.0551
      6 C         140.5775  139.8707  166.2257 C.ar    1  UNL1        0.0091
      7 C         141.3746  139.2622  163.8289 C.ar    1  UNL1        0.1261
      8 C         142.2004  138.1351  163.2835 C.ar    1  UNL1        0.1177
      9 N         143.0834  138.6874  162.2040 N.ar    1  UNL1       -0.2282
     10 C         144.0728  137.9081  161.3894 C.3     1  UNL1        0.1556
     11 N         142.8032  140.1560  162.0823 N.ar    1  UNL1       -0.0637
     12 N         141.7471  140.5112  163.0865 N.ar    1  UNL1       -0.1286
     13 N         140.2772  141.8945  168.6276 N.am    1  UNL1       -0.3009
     14 C         139.7806  140.4792  168.6225 C.2     1  UNL1        0.2458
     15 O         139.5064  139.7759  169.9187 O.2     1  UNL1       -0.2701
     16 H         140.4572  142.3561  167.7768 H       1  UNL1        0.1497
     17 C         140.4532  144.1050  169.9814 C.3     1  UNL1        0.0230
     18 C         140.4996  142.6066  169.9289 C.3     1  UNL1        0.0898
     19 O         138.8909  137.6307  163.4172 O.3     1  UNL1       -0.4689
     20 C         138.0535  138.2669  162.3477 C.3     1  UNL1        0.2508
     21 C         138.3756  139.6507  161.8667 C.ar    1  UNL1        0.1022
     22 C         139.2094  139.8413  160.6345 C.ar    1  UNL1        0.0184
     23 C         139.5316  141.2251  160.1535 C.ar    1  UNL1        0.0025
     24 C         139.0200  142.4183  160.9048 C.ar    1  UNL1        0.0147
     25 C         138.1862  142.2278  162.1371 C.ar    1  UNL1        0.0591
     26 C         137.6746  143.4210  162.8884 C.3     1  UNL1        0.0521
     27 N         137.8640  140.8440  162.6181 N.ar    1  UNL1       -0.2503
@<TRIPOS>BOND
     1    17    18    1
     2    18    13    1
     3    13    14   am
     4    14    15    2
     5    14     1    1
     6     1     2   ar
     7     2     3   ar
     8     3     4   ar
     9     4    19    1
    10    19    20    1
    11    20    21    1
    12    21    22   ar
    13    22    23   ar
    14    23    24   ar
    15    24    25   ar
    16    25    26    1
    17    25    27   ar
    18     4     5   ar
    19     5     7    1
    20     7     8   ar
    21     8     9   ar
    22     9    10    1
    23     9    11   ar
    24    11    12   ar
    25     5     6   ar
    26     6     1   ar
    27    27    21   ar
    28    12     7   ar
    29    13    16    1
@<TRIPOS>MOLECULE
*****
 27 29 0 0 0
SMALL
GASTEIGER

@<TRIPOS>ATOM
      1 C         140.9048  139.8783  167.0985 C.ar    1  UNL1        0.0536
      2 C         142.3101  139.3541  167.0820 C.ar    1  UNL1        0.0076
      3 C         142.8449  138.6804  165.8531 C.ar    1  UNL1        0.0371
      4 C         141.9744  138.5310  164.6407 C.ar    1  UNL1        0.1406
      5 C         140.5691  139.0552  164.6573 C.ar    1  UNL1        0.0551
      6 C         140.0343  139.7289  165.8861 C.ar    1  UNL1        0.0091
      7 C         139.6986  138.9057  163.4448 C.ar    1  UNL1        0.1261
      8 C         139.5902  139.8823  162.3114 C.ar    1  UNL1        0.1177
      9 N         138.6083  139.3337  161.3191 N.ar    1  UNL1       -0.2282
     10 C         138.1971  139.9861  160.0326 C.3     1  UNL1        0.1556
     11 N         138.1097  138.0180  161.8393 N.ar    1  UNL1       -0.0637
     12 N         138.7835  137.7536  163.1530 N.ar    1  UNL1       -0.1286
     13 N         140.7678  141.9636  168.6421 N.am    1  UNL1       -0.3009
     14 C         140.3700  140.5520  168.3274 C.2     1  UNL1        0.2458
     15 O         139.4374  139.8141  169.2415 O.2     1  UNL1       -0.2701
     16 H         141.3800  142.4479  168.0422 H       1  UNL1        0.1497
     17 C         140.3259  144.1280  170.0097 C.3     1  UNL1        0.0230
     18 C         140.2330  142.6372  169.8710 C.3     1  UNL1        0.0898
     19 O         142.5092  137.8573  163.4119 O.3     1  UNL1       -0.4689
     20 C         143.4282  138.6009  162.4887 C.3     1  UNL1        0.2508
     21 C         143.8322  140.0100  162.8072 C.ar    1  UNL1        0.1022
     22 C         145.0863  140.2725  163.5871 C.ar    1  UNL1        0.0184
     23 C         145.4903  141.6815  163.9056 C.ar    1  UNL1        0.0025
     24 C         144.6402  142.8280  163.4444 C.ar    1  UNL1        0.0147
     25 C         143.3860  142.5655  162.6645 C.ar    1  UNL1        0.0591
     26 C         142.5359  143.7119  162.2032 C.3     1  UNL1        0.0521
     27 N         142.9820  141.1565  162.3459 N.ar    1  UNL1       -0.2503
@<TRIPOS>BOND
     1    17    18    1
     2    18    13    1
     3    13    14   am
     4    14    15    2
     5    14     1    1
     6     1     2   ar
     7     2     3   ar
     8     3     4   ar
     9     4    19    1
    10    19    20    1
    11    20    21    1
    12    21    22   ar
    13    22    23   ar
    14    23    24   ar
    15    24    25   ar
    16    25    26    1
    17    25    27   ar
    18     4     5   ar
    19     5     7    1
    20     7     8   ar
    21     8     9   ar
    22     9    10    1
    23     9    11   ar
    24    11    12   ar
    25     5     6   ar
    26     6     1   ar
    27    27    21   ar
    28    12     7   ar
    29    13    16    1
@<TRIPOS>MOLECULE
*****
 27 29 0 0 0
SMALL
GASTEIGER

@<TRIPOS>ATOM
      1 C         141.0616  139.7944  167.0919 C.ar    1  UNL1        0.0536
      2 C         139.5746  139.9121  167.2500 C.ar    1  UNL1        0.0076
      3 C         138.6720  139.6312  166.0854 C.ar    1  UNL1        0.0371
      4 C         139.2562  139.2326  164.7627 C.ar    1  UNL1        0.1406
      5 C         140.7432  139.1148  164.6046 C.ar    1  UNL1        0.0551
      6 C         141.6459  139.3958  165.7691 C.ar    1  UNL1        0.0091
      7 C         141.3275  138.7162  163.2818 C.ar    1  UNL1        0.1261
      8 C         142.2847  139.5278  162.4601 C.ar    1  UNL1        0.1177
      9 N         142.6060  138.7492  161.2190 N.ar    1  UNL1       -0.2282
     10 C         143.5246  139.1867  160.1168 C.3     1  UNL1        0.1556
     11 N         141.8474  137.4563  161.2736 N.ar    1  UNL1       -0.0637
     12 N         141.0573  137.4359  162.5484 N.ar    1  UNL1       -0.1286
     13 N         141.8754  141.3893  168.9744 N.am    1  UNL1       -0.3009
     14 C         141.9643  140.0754  168.2564 C.2     1  UNL1        0.2458
     15 O         142.9559  139.0423  168.7030 O.2     1  UNL1       -0.2701
     16 H         141.2245  142.0674  168.6813 H       1  UNL1        0.1497
     17 C         144.0603  142.4203  169.9302 C.3     1  UNL1        0.0230
     18 C         142.7781  141.6703  170.1390 C.3     1  UNL1        0.0898
     19 O         138.3535  138.9516  163.5981 O.3     1  UNL1       -0.4689
     20 C         137.9929  140.0531  162.6459 C.3     1  UNL1        0.2508
     21 C         138.3728  141.4699  162.9595 C.ar    1  UNL1        0.1022
     22 C         137.4863  142.3086  163.8316 C.ar    1  UNL1        0.0184
     23 C         137.8662  143.7254  164.1451 C.ar    1  UNL1        0.0025
     24 C         139.1325  144.3035  163.5866 C.ar    1  UNL1        0.0147
     25 C         140.0191  143.4648  162.7144 C.ar    1  UNL1        0.0591
     26 C         141.2855  144.0429  162.1558 C.3     1  UNL1        0.0521
     27 N         139.6392  142.0480  162.4009 N.ar    1  UNL1       -0.2503
@<TRIPOS>BOND
     1    17    18    1
     2    18    13    1
     3    13    14   am
     4    14    15    2
     5    14     1    1
     6     1     2   ar
     7     2     3   ar
     8     3     4   ar
     9     4    19    1
    10    19    20    1
    11    20    21    1
    12    21    22   ar
    13    22    23   ar
    14    23    24   ar
    15    24    25   ar
    16    25    26    1
    17    25    27   ar
    18     4     5   ar
    19     5     7    1
    20     7     8   ar
    21     8     9   ar
    22     9    10    1
    23     9    11   ar
    24    11    12   ar
    25     5     6   ar
    26     6     1   ar
    27    27    21   ar
    28    12     7   ar
    29    13    16    1
@<TRIPOS>MOLECULE
*****
 27 29 0 0 0
SMALL
GASTEIGER

@<TRIPOS>ATOM
      1 C         139.9961  141.4218  166.7157 C.ar    1  UNL1        0.0536
      2 C         140.0608  142.9080  166.9081 C.ar    1  UNL1        0.0076
      3 C         139.6733  143.8269  165.7876 C.ar    1  UNL1        0.0371
      4 C         139.2210  143.2596  164.4748 C.ar    1  UNL1        0.1406
      5 C         139.1563  141.7735  164.2824 C.ar    1  UNL1        0.0551
      6 C         139.5439  140.8546  165.4028 C.ar    1  UNL1        0.0091
      7 C         138.7040  141.2061  162.9695 C.ar    1  UNL1        0.1261
      8 C         139.5648  140.4775  161.9804 C.ar    1  UNL1        0.1177
      9 N         138.7044  140.0889  160.8148 N.ar    1  UNL1       -0.2282
     10 C         139.1571  139.3428  159.5948 C.3     1  UNL1        0.1556
     11 N         137.3118  140.5773  161.0835 N.ar    1  UNL1       -0.0637
     12 N         137.3116  141.2678  162.4151 N.ar    1  UNL1       -0.1286
     13 N         141.8196  140.3970  168.2567 N.am    1  UNL1       -0.3009
     14 C         140.3837  140.5029  167.8361 C.2     1  UNL1        0.2458
     15 O         139.3353  139.6899  168.5360 O.2     1  UNL1       -0.2701
     16 H         142.5077  140.9307  167.7973 H       1  UNL1        0.1497
     17 C         142.9051  140.0241  170.5875 C.3     1  UNL1        0.0230
     18 C         142.2071  139.4781  169.3771 C.3     1  UNL1        0.0898
     19 O         138.8334  144.1785  163.3543 O.3     1  UNL1       -0.4689
     20 C         139.8230  145.1730  162.8235 C.3     1  UNL1        0.2508
     21 C         141.2785  144.8175  162.7514 C.ar    1  UNL1        0.1022
     22 C         142.2355  145.3648  163.7685 C.ar    1  UNL1        0.0184
     23 C         143.6910  145.0092  163.6964 C.ar    1  UNL1        0.0025
     24 C         144.1894  144.1064  162.6072 C.ar    1  UNL1        0.0147
     25 C         143.2324  143.5590  161.5901 C.ar    1  UNL1        0.0591
     26 C         143.7308  142.6561  160.5009 C.3     1  UNL1        0.0521
     27 N         141.7769  143.9145  161.6622 N.ar    1  UNL1       -0.2503
@<TRIPOS>BOND
     1    17    18    1
     2    18    13    1
     3    13    14   am
     4    14    15    2
     5    14     1    1
     6     1     2   ar
     7     2     3   ar
     8     3     4   ar
     9     4    19    1
    10    19    20    1
    11    20    21    1
    12    21    22   ar
    13    22    23   ar
    14    23    24   ar
    15    24    25   ar
    16    25    26    1
    17    25    27   ar
    18     4     5   ar
    19     5     7    1
    20     7     8   ar
    21     8     9   ar
    22     9    10    1
    23     9    11   ar
    24    11    12   ar
    25     5     6   ar
    26     6     1   ar
    27    27    21   ar
    28    12     7   ar
    29    13    16    1
@<TRIPOS>MOLECULE
*****
 27 29 0 0 0
SMALL
GASTEIGER

@<TRIPOS>ATOM
      1 C         142.6831  140.6362  166.8352 C.ar    1  UNL1        0.0536
      2 C         143.0506  139.1885  166.6972 C.ar    1  UNL1        0.0076
      3 C         143.5418  138.6615  165.3816 C.ar    1  UNL1        0.0371
      4 C         143.6656  139.5822  164.2039 C.ar    1  UNL1        0.1406
      5 C         143.2981  141.0299  164.3419 C.ar    1  UNL1        0.0551
      6 C         142.8069  141.5569  165.6576 C.ar    1  UNL1        0.0091
      7 C         143.4219  141.9507  163.1642 C.ar    1  UNL1        0.1261
      8 C         142.4687  142.0381  162.0093 C.ar    1  UNL1        0.1177
      9 N         142.9782  143.0871  161.0660 N.ar    1  UNL1       -0.2282
     10 C         142.3329  143.5023  159.7771 C.3     1  UNL1        0.1556
     11 N         144.2465  143.6481  161.6379 N.ar    1  UNL1       -0.0637
     12 N         144.5206  142.9457  162.9346 N.ar    1  UNL1       -0.1286
     13 N         140.8383  141.8028  168.2444 N.am    1  UNL1       -0.3009
     14 C         142.1919  141.1632  168.1509 C.2     1  UNL1        0.2458
     15 O         143.0542  141.0506  169.3730 O.2     1  UNL1       -0.2701
     16 H         140.2723  141.8767  167.4422 H       1  UNL1        0.1497
     17 C         140.4378  143.7965  169.8615 C.3     1  UNL1        0.0230
     18 C         140.3471  142.3298  169.5600 C.3     1  UNL1        0.0898
     19 O         144.1568  139.0552  162.8883 O.3     1  UNL1       -0.4689
     20 C         143.4061  137.9592  162.1919 C.3     1  UNL1        0.2508
     21 C         141.9122  138.0298  162.0758 C.ar    1  UNL1        0.1022
     22 C         141.0477  137.4189  163.1385 C.ar    1  UNL1        0.0184
     23 C         139.5539  137.4894  163.0225 C.ar    1  UNL1        0.0025
     24 C         138.9246  138.1709  161.8437 C.ar    1  UNL1        0.0147
     25 C         139.7891  138.7818  160.7809 C.ar    1  UNL1        0.0591
     26 C         139.1597  139.4633  159.6022 C.3     1  UNL1        0.0521
     27 N         141.2829  138.7113  160.8970 N.ar    1  UNL1       -0.2503
@<TRIPOS>BOND
     1    17    18    1
     2    18    13    1
     3    13    14   am
     4    14    15    2
     5    14     1    1
     6     1     2   ar
     7     2     3   ar
     8     3     4   ar
     9     4    19    1
    10    19    20    1
    11    20    21    1
    12    21    22   ar
    13    22    23   ar
    14    23    24   ar
    15    24    25   ar
    16    25    26    1
    17    25    27   ar
    18     4     5   ar
    19     5     7    1
    20     7     8   ar
    21     8     9   ar
    22     9    10    1
    23     9    11   ar
    24    11    12   ar
    25     5     6   ar
    26     6     1   ar
    27    27    21   ar
    28    12     7   ar
    29    13    16    1
@<TRIPOS>MOLECULE
*****
 27 29 0 0 0
SMALL
GASTEIGER

@<TRIPOS>ATOM
      1 C         139.7562  140.6763  167.0511 C.ar    1  UNL1        0.0536
      2 C         139.0153  139.4233  166.6889 C.ar    1  UNL1        0.0076
      3 C         138.2487  139.3508  165.4017 C.ar    1  UNL1        0.0371
      4 C         138.2229  140.5312  164.4766 C.ar    1  UNL1        0.1406
      5 C         138.9637  141.7842  164.8387 C.ar    1  UNL1        0.0551
      6 C         139.7303  141.8567  166.1259 C.ar    1  UNL1        0.0091
      7 C         138.9379  142.9647  163.9136 C.ar    1  UNL1        0.1261
      8 C         140.1104  143.5216  163.1619 C.ar    1  UNL1        0.1177
      9 N         139.6323  144.6966  162.3614 N.ar    1  UNL1       -0.2282
     10 C         140.4743  145.5520  161.4620 C.3     1  UNL1        0.1556
     11 N         138.1642  144.8659  162.6185 N.ar    1  UNL1       -0.0637
     12 N         137.7350  143.7956  163.5777 N.ar    1  UNL1       -0.1286
     13 N         141.5682  141.8073  168.5300 N.am    1  UNL1       -0.3009
     14 C         140.5228  140.7489  168.3383 C.2     1  UNL1        0.2458
     15 O         140.2441  139.7630  169.4338 O.2     1  UNL1       -0.2701
     16 H         141.7511  142.4545  167.8109 H       1  UNL1        0.1497
     17 C         143.7662  142.3286  169.8134 C.3     1  UNL1        0.0230
     18 C         142.3348  141.8799  169.8172 C.3     1  UNL1        0.0898
     19 O         137.4562  140.4587  163.1893 O.3     1  UNL1       -0.4689
     20 C         138.0279  139.7185  162.0166 C.3     1  UNL1        0.2508
     21 C         138.7157  140.4720  160.9171 C.ar    1  UNL1        0.1022
     22 C         138.2272  141.8339  160.5215 C.ar    1  UNL1        0.0184
     23 C         138.9151  142.5874  159.4220 C.ar    1  UNL1        0.0025
     24 C         140.0915  141.9790  158.7179 C.ar    1  UNL1        0.0147
     25 C         140.5802  140.6170  159.1135 C.ar    1  UNL1        0.0591
     26 C         141.7567  140.0086  158.4094 C.3     1  UNL1        0.0521
     27 N         139.8923  139.8635  160.2130 N.ar    1  UNL1       -0.2503
@<TRIPOS>BOND
     1    17    18    1
     2    18    13    1
     3    13    14   am
     4    14    15    2
     5    14     1    1
     6     1     2   ar
     7     2     3   ar
     8     3     4   ar
     9     4    19    1
    10    19    20    1
    11    20    21    1
    12    21    22   ar
    13    22    23   ar
    14    23    24   ar
    15    24    25   ar
    16    25    26    1
    17    25    27   ar
    18     4     5   ar
    19     5     7    1
    20     7     8   ar
    21     8     9   ar
    22     9    10    1
    23     9    11   ar
    24    11    12   ar
    25     5     6   ar
    26     6     1   ar
    27    27    21   ar
    28    12     7   ar
    29    13    16    1
