@<TRIPOS>MOLECULE
*****
 38 42 0 0 0
SMALL
GASTEIGER

@<TRIPOS>ATOM
      1 C         142.1794  138.9616  164.0042 C.3     1  UNL1        0.0414
      2 C         143.1543  139.7778  164.8001 C.3     1  UNL1        0.0741
      3 C         143.1450  139.7177  164.9449 C.3     1  UNL1        0.1092
      4 C         142.8259  141.1057  165.4156 C.3     1  UNL1        0.0404
      5 C         142.5746  141.3647  166.8715 C.3     1  UNL1        0.0594
      6 C         142.4045  141.1619  168.3480 C.3     1  UNL1        0.0174
      7 C         142.6278  139.7087  168.6450 C.3     1  UNL1        0.0174
      8 C         142.9358  139.0133  167.3521 C.3     1  UNL1        0.0594
      9 C         143.2127  138.5886  165.9301 C.3     1  UNL1        0.0404
     10 N         142.9030  140.0367  166.2560 N.3     1  UNL1       -0.2750
     11 C         143.0861  137.3365  160.3046 C.3     1  UNL1        0.0756
     12 C         143.4106  138.4111  161.2996 C.ar    1  UNL1        0.1604
     13 N         144.1557  139.7088  161.1974 N.ar    1  UNL1       -0.2147
     14 C         144.1470  140.3563  162.5504 C.ar    1  UNL1        0.1370
     15 N         143.3964  139.4586  163.4889 N.ar    1  UNL1       -0.2385
     16 N         142.9412  138.2564  162.7158 N.ar    1  UNL1       -0.1534
     17 C         144.7781  141.6706  162.9031 C.3     1  UNL1        0.0584
     18 C         144.1590  142.9514  162.4274 C.3     1  UNL1        0.0080
     19 C         146.0282  141.7041  163.7314 C.3     1  UNL1        0.0080
     20 C         140.7512  139.4045  163.8861 C.3     1  UNL1        0.0954
     21 C         139.7413  138.9587  164.9017 C.ar    1  UNL1       -0.0045
     22 C         139.3277  139.8867  166.0053 C.ar    1  UNL1       -0.0027
     23 C         138.3178  139.4411  167.0210 C.ar    1  UNL1       -0.0003
     24 C         137.7214  138.0675  166.9330 C.ar    1  UNL1       -0.0000
     25 C         138.1350  137.1395  165.8294 C.ar    1  UNL1       -0.0003
     26 C         139.1450  137.5852  164.8138 C.ar    1  UNL1       -0.0027
     27 N         140.3327  140.2932  162.7524 N.am    1  UNL1       -0.3022
     28 C         139.8466  139.6910  161.4675 C.2     1  UNL1        0.2222
     29 O         139.7157  138.2315  161.1471 O.2     1  UNL1       -0.2751
     30 H         140.3772  141.2716  162.8517 H       1  UNL1        0.1497
     31 C         139.4281  140.5797  160.3339 C.3     1  UNL1        0.0769
     32 C         140.0812  141.9174  160.1491 C.3     1  UNL1        0.0147
     33 C         139.6627  142.8061  159.0154 C.3     1  UNL1        0.0671
     34 C         138.5913  142.3570  158.0666 C.3     1  UNL1        0.2640
     35 F         137.6308  142.3748  156.9146 F       1  UNL1       -0.2043
     36 F         138.9107  143.7009  157.4818 F       1  UNL1       -0.2043
     37 C         137.9383  141.0194  158.2513 C.3     1  UNL1        0.0671
     38 C         138.3567  140.1307  159.3850 C.3     1  UNL1        0.0147
@<TRIPOS>BOND
     1    11    12    1
     2    12    13   ar
     3    13    14   ar
     4    14    17    1
     5    17    18    1
     6    17    19    1
     7    14    15   ar
     8     3    15    1
     9     3     4    1
    10     5     4    1
    11     5     6    1
    12     6     7    1
    13     8     7    1
    14     8     9    1
    15     8    10    1
    16    10     2    1
    17     2     1    1
    18    20     1    1
    19    20    27    1
    20    27    28   am
    21    28    29    2
    22    28    31    1
    23    31    32    1
    24    32    33    1
    25    33    34    1
    26    34    35    1
    27    34    36    1
    28    34    37    1
    29    37    38    1
    30    20    21    1
    31    21    22   ar
    32    22    23   ar
    33    23    24   ar
    34    24    25   ar
    35    25    26   ar
    36    15    16   ar
    37    16    12   ar
    38     9     3    1
    39    38    31    1
    40    26    21   ar
    41    10     5    1
    42    27    30    1
@<TRIPOS>MOLECULE
*****
 38 42 0 0 0
SMALL
GASTEIGER

@<TRIPOS>ATOM
      1 C         141.0721  140.5965  165.0964 C.3     1  UNL1        0.0414
      2 C         142.3705  140.7122  165.8387 C.3     1  UNL1        0.0741
      3 C         142.4856  140.6642  165.7433 C.3     1  UNL1        0.1092
      4 C         143.0390  142.0550  165.8402 C.3     1  UNL1        0.0404
      5 C         144.2947  142.4156  165.1032 C.3     1  UNL1        0.0594
      6 C         145.5155  142.3266  164.2362 C.3     1  UNL1        0.0174
      7 C         145.6015  140.9289  163.6988 C.3     1  UNL1        0.0174
      8 C         144.4338  140.1539  164.2337 C.3     1  UNL1        0.0594
      9 C         143.1880  139.6340  164.9094 C.3     1  UNL1        0.0404
     10 N         143.6262  141.0728  165.1016 N.3     1  UNL1       -0.2750
     11 C         137.8109  138.5767  166.7406 C.3     1  UNL1        0.0756
     12 C         139.0571  139.3644  167.0168 C.ar    1  UNL1        0.1604
     13 N         139.5380  140.1327  168.2120 N.ar    1  UNL1       -0.2147
     14 C         140.8808  140.7131  167.8805 C.ar    1  UNL1        0.1370
     15 N         141.2299  140.3035  166.4803 N.ar    1  UNL1       -0.2385
     16 N         140.1028  139.4700  165.9466 N.ar    1  UNL1       -0.1534
     17 C         141.7261  141.5552  168.7895 C.3     1  UNL1        0.0584
     18 C         141.3430  142.9791  169.0642 C.3     1  UNL1        0.0080
     19 C         142.9547  140.9734  169.4237 C.3     1  UNL1        0.0080
     20 C         140.6858  141.6428  164.0936 C.3     1  UNL1        0.0954
     21 C         139.6591  142.6777  164.4470 C.ar    1  UNL1       -0.0045
     22 C         139.8953  143.6044  165.6027 C.ar    1  UNL1       -0.0027
     23 C         138.8687  144.6393  165.9563 C.ar    1  UNL1       -0.0003
     24 C         137.6058  144.7475  165.1541 C.ar    1  UNL1       -0.0000
     25 C         137.3695  143.8209  163.9984 C.ar    1  UNL1       -0.0003
     26 C         138.3962  142.7860  163.6449 C.ar    1  UNL1       -0.0027
     27 N         141.3261  141.6544  162.7371 N.am    1  UNL1       -0.3022
     28 C         142.0382  142.8832  162.2543 C.2     1  UNL1        0.2222
     29 O         142.2046  144.1786  162.9920 O.2     1  UNL1       -0.2751
     30 H         141.2790  140.8555  162.1637 H       1  UNL1        0.1497
     31 C         142.6784  142.8947  160.8979 C.3     1  UNL1        0.0769
     32 C         141.8838  143.3147  159.6970 C.3     1  UNL1        0.0147
     33 C         142.5241  143.3262  158.3405 C.3     1  UNL1        0.0671
     34 C         143.9590  142.9178  158.1851 C.3     1  UNL1        0.2640
     35 F         145.2769  142.6192  157.5339 F       1  UNL1       -0.2043
     36 F         143.6220  143.2341  156.7580 F       1  UNL1       -0.2043
     37 C         144.7536  142.4978  159.3859 C.3     1  UNL1        0.0671
     38 C         144.1134  142.4862  160.7424 C.3     1  UNL1        0.0147
@<TRIPOS>BOND
     1    11    12    1
     2    12    13   ar
     3    13    14   ar
     4    14    17    1
     5    17    18    1
     6    17    19    1
     7    14    15   ar
     8     3    15    1
     9     3     4    1
    10     5     4    1
    11     5     6    1
    12     6     7    1
    13     8     7    1
    14     8     9    1
    15     8    10    1
    16    10     2    1
    17     2     1    1
    18    20     1    1
    19    20    27    1
    20    27    28   am
    21    28    29    2
    22    28    31    1
    23    31    32    1
    24    32    33    1
    25    33    34    1
    26    34    35    1
    27    34    36    1
    28    34    37    1
    29    37    38    1
    30    20    21    1
    31    21    22   ar
    32    22    23   ar
    33    23    24   ar
    34    24    25   ar
    35    25    26   ar
    36    15    16   ar
    37    16    12   ar
    38     9     3    1
    39    38    31    1
    40    26    21   ar
    41    10     5    1
    42    27    30    1
@<TRIPOS>MOLECULE
*****
 38 42 0 0 0
SMALL
GASTEIGER

@<TRIPOS>ATOM
      1 C         141.1098  142.5115  161.9867 C.3     1  UNL1        0.0414
      2 C         140.8833  143.8518  162.6210 C.3     1  UNL1        0.0741
      3 C         140.7297  143.8294  162.6451 C.3     1  UNL1        0.1092
      4 C         140.9080  144.5565  163.9449 C.3     1  UNL1        0.0404
      5 C         139.7334  144.7674  164.8536 C.3     1  UNL1        0.0594
      6 C         138.3430  144.7461  165.4161 C.3     1  UNL1        0.0174
      7 C         137.4590  144.0282  164.4399 C.3     1  UNL1        0.0174
      8 C         138.3029  143.6058  163.2739 C.3     1  UNL1        0.0594
      9 C         139.3767  143.3131  162.2540 C.3     1  UNL1        0.0404
     10 N         139.7086  144.0626  163.5296 N.3     1  UNL1       -0.2750
     11 C         143.4688  142.7742  158.3335 C.3     1  UNL1        0.0756
     12 C         143.2458  143.1394  159.7712 C.ar    1  UNL1        0.1604
     13 N         144.1781  143.4487  160.9047 N.ar    1  UNL1       -0.2147
     14 C         143.3492  143.7448  162.1192 C.ar    1  UNL1        0.1370
     15 N         141.9044  143.6185  161.7364 N.ar    1  UNL1       -0.2385
     16 N         141.8405  143.2443  160.2852 N.ar    1  UNL1       -0.1534
     17 C         143.8730  144.1042  163.4781 C.3     1  UNL1        0.0584
     18 C         143.8629  145.5338  163.9318 C.3     1  UNL1        0.0080
     19 C         144.4070  143.0338  164.3833 C.3     1  UNL1        0.0080
     20 C         141.5451  141.3480  162.8273 C.3     1  UNL1        0.0954
     21 C         142.1389  140.1336  162.1772 C.ar    1  UNL1       -0.0045
     22 C         141.2663  138.9607  161.8407 C.ar    1  UNL1       -0.0027
     23 C         141.8599  137.7463  161.1906 C.ar    1  UNL1       -0.0003
     24 C         143.3263  137.7046  160.8770 C.ar    1  UNL1       -0.0000
     25 C         144.1988  138.8774  161.2135 C.ar    1  UNL1       -0.0003
     26 C         143.6051  140.0919  161.8635 C.ar    1  UNL1       -0.0027
     27 N         141.3867  141.3988  164.3181 N.am    1  UNL1       -0.3022
     28 C         140.1329  140.8796  164.9572 C.2     1  UNL1        0.2222
     29 O         138.9463  140.2809  164.2618 O.2     1  UNL1       -0.2751
     30 H         142.1056  141.7729  164.8770 H       1  UNL1        0.1497
     31 C         139.9745  140.9304  166.4479 C.3     1  UNL1        0.0769
     32 C         140.4944  142.1082  167.2176 C.3     1  UNL1        0.0147
     33 C         140.3360  142.1590  168.7085 C.3     1  UNL1        0.0671
     34 C         139.6578  141.0320  169.4294 C.3     1  UNL1        0.2640
     35 F         139.0919  140.2155  170.5533 F       1  UNL1       -0.2043
     36 F         139.9811  141.9263  170.5895 F       1  UNL1       -0.2043
     37 C         139.1379  139.8541  168.6597 C.3     1  UNL1        0.0671
     38 C         139.2963  139.8033  167.1689 C.3     1  UNL1        0.0147
@<TRIPOS>BOND
     1    11    12    1
     2    12    13   ar
     3    13    14   ar
     4    14    17    1
     5    17    18    1
     6    17    19    1
     7    14    15   ar
     8     3    15    1
     9     3     4    1
    10     5     4    1
    11     5     6    1
    12     6     7    1
    13     8     7    1
    14     8     9    1
    15     8    10    1
    16    10     2    1
    17     2     1    1
    18    20     1    1
    19    20    27    1
    20    27    28   am
    21    28    29    2
    22    28    31    1
    23    31    32    1
    24    32    33    1
    25    33    34    1
    26    34    35    1
    27    34    36    1
    28    34    37    1
    29    37    38    1
    30    20    21    1
    31    21    22   ar
    32    22    23   ar
    33    23    24   ar
    34    24    25   ar
    35    25    26   ar
    36    15    16   ar
    37    16    12   ar
    38     9     3    1
    39    38    31    1
    40    26    21   ar
    41    10     5    1
    42    27    30    1
@<TRIPOS>MOLECULE
*****
 38 42 0 0 0
SMALL
GASTEIGER

@<TRIPOS>ATOM
      1 C         140.2201  142.2609  165.2185 C.3     1  UNL1        0.0414
      2 C         141.5334  142.1640  165.9369 C.3     1  UNL1        0.0741
      3 C         141.4960  142.1205  166.0831 C.3     1  UNL1        0.1092
      4 C         142.3960  140.9383  165.8778 C.3     1  UNL1        0.0404
      5 C         142.5773  139.9338  166.9770 C.3     1  UNL1        0.0594
      6 C         142.4609  139.2212  168.2918 C.3     1  UNL1        0.0174
      7 C         141.5263  140.0065  169.1634 C.3     1  UNL1        0.0174
      8 C         141.0651  141.2045  168.3874 C.3     1  UNL1        0.0594
      9 C         140.7772  142.2984  167.3876 C.3     1  UNL1        0.0404
     10 N         141.7146  141.1596  167.0361 N.3     1  UNL1       -0.2750
     11 C         139.1528  145.3996  162.7720 C.3     1  UNL1        0.0756
     12 C         140.2954  144.6683  163.4123 C.ar    1  UNL1        0.1604
     13 N         141.7760  144.6731  163.1725 N.ar    1  UNL1       -0.2147
     14 C         142.4060  143.7194  164.1437 C.ar    1  UNL1        0.1370
     15 N         141.3147  143.1250  164.9839 N.ar    1  UNL1       -0.2385
     16 N         140.0102  143.7115  164.5318 N.ar    1  UNL1       -0.1534
     17 C         143.8703  143.4135  164.2553 C.3     1  UNL1        0.0584
     18 C         144.6520  143.9086  165.4359 C.3     1  UNL1        0.0080
     19 C         144.5529  142.6126  163.1863 C.3     1  UNL1        0.0080
     20 C         139.7518  141.1267  164.3558 C.3     1  UNL1        0.0954
     21 C         139.2244  139.8724  164.9871 C.ar    1  UNL1       -0.0045
     22 C         139.5709  138.5354  164.4019 C.ar    1  UNL1       -0.0027
     23 C         139.0435  137.2810  165.0331 C.ar    1  UNL1       -0.0003
     24 C         138.1695  137.3636  166.2495 C.ar    1  UNL1       -0.0000
     25 C         137.8231  138.7006  166.8346 C.ar    1  UNL1       -0.0003
     26 C         138.3505  139.9550  166.2034 C.ar    1  UNL1       -0.0027
     27 N         139.8108  141.2468  162.8617 N.am    1  UNL1       -0.3022
     28 C         138.5597  141.5218  162.0814 C.2     1  UNL1        0.2222
     29 O         137.1753  141.7034  162.6296 O.2     1  UNL1       -0.2751
     30 H         140.6708  141.1451  162.3933 H       1  UNL1        0.1497
     31 C         138.6188  141.6418  160.5874 C.3     1  UNL1        0.0769
     32 C         139.1141  142.9090  159.9558 C.3     1  UNL1        0.0147
     33 C         139.1732  143.0291  158.4617 C.3     1  UNL1        0.0671
     34 C         138.7369  141.8819  157.5993 C.3     1  UNL1        0.2640
     35 F         138.4365  141.0779  156.3692 F       1  UNL1       -0.2043
     36 F         139.1279  142.8699  156.5405 F       1  UNL1       -0.2043
     37 C         138.2416  140.6147  158.2309 C.3     1  UNL1        0.0671
     38 C         138.1825  140.4947  159.7249 C.3     1  UNL1        0.0147
@<TRIPOS>BOND
     1    11    12    1
     2    12    13   ar
     3    13    14   ar
     4    14    17    1
     5    17    18    1
     6    17    19    1
     7    14    15   ar
     8     3    15    1
     9     3     4    1
    10     5     4    1
    11     5     6    1
    12     6     7    1
    13     8     7    1
    14     8     9    1
    15     8    10    1
    16    10     2    1
    17     2     1    1
    18    20     1    1
    19    20    27    1
    20    27    28   am
    21    28    29    2
    22    28    31    1
    23    31    32    1
    24    32    33    1
    25    33    34    1
    26    34    35    1
    27    34    36    1
    28    34    37    1
    29    37    38    1
    30    20    21    1
    31    21    22   ar
    32    22    23   ar
    33    23    24   ar
    34    24    25   ar
    35    25    26   ar
    36    15    16   ar
    37    16    12   ar
    38     9     3    1
    39    38    31    1
    40    26    21   ar
    41    10     5    1
    42    27    30    1
@<TRIPOS>MOLECULE
*****
 38 42 0 0 0
SMALL
GASTEIGER

@<TRIPOS>ATOM
      1 C         139.6149  140.6711  162.2016 C.3     1  UNL1        0.0414
      2 C         138.5284  140.6874  163.2356 C.3     1  UNL1        0.0741
      3 C         138.5487  140.5369  163.2757 C.3     1  UNL1        0.1092
      4 C         138.2307  140.9502  164.6821 C.3     1  UNL1        0.0404
      5 C         138.2256  139.9291  165.7809 C.3     1  UNL1        0.0594
      6 C         138.3334  138.6283  166.5201 C.3     1  UNL1        0.0174
      7 C         138.6977  137.5616  165.5305 C.3     1  UNL1        0.0174
      8 C         138.8151  138.2031  164.1796 C.3     1  UNL1        0.0594
      9 C         138.8617  139.1025  162.9681 C.3     1  UNL1        0.0404
     10 N         138.5233  139.6663  164.3344 N.3     1  UNL1       -0.2750
     11 C         138.5022  142.5780  158.4760 C.3     1  UNL1        0.0756
     12 C         138.5349  142.5802  159.9756 C.ar    1  UNL1        0.1604
     13 N         138.5882  143.6782  160.9962 N.ar    1  UNL1       -0.2147
     14 C         138.5999  143.0465  162.3565 C.ar    1  UNL1        0.1370
     15 N         138.5538  141.5580  162.1768 N.ar    1  UNL1       -0.2385
     16 N         138.5136  141.2698  160.7053 N.ar    1  UNL1       -0.1534
     17 C         138.6491  143.7752  163.6667 C.3     1  UNL1        0.0584
     18 C         137.3840  144.0290  164.4317 C.3     1  UNL1        0.0080
     19 C         139.9633  144.2503  164.2120 C.3     1  UNL1        0.0080
     20 C         141.0039  141.1042  162.5663 C.3     1  UNL1        0.0954
     21 C         142.0387  141.2849  161.4956 C.ar    1  UNL1       -0.0045
     22 C         142.7365  140.0894  160.9176 C.ar    1  UNL1       -0.0027
     23 C         143.7713  140.2700  159.8469 C.ar    1  UNL1       -0.0003
     24 C         144.1084  141.6462  159.3541 C.ar    1  UNL1       -0.0000
     25 C         143.4106  142.8416  159.9320 C.ar    1  UNL1       -0.0003
     26 C         142.3757  142.6610  161.0028 C.ar    1  UNL1       -0.0027
     27 N         141.3582  141.3567  164.0019 N.am    1  UNL1       -0.3022
     28 C         141.9621  140.2609  164.8293 C.2     1  UNL1        0.2222
     29 O         142.2772  138.8633  164.3849 O.2     1  UNL1       -0.2751
     30 H         141.1943  142.2416  164.4011 H       1  UNL1        0.1497
     31 C         142.3163  140.5134  166.2648 C.3     1  UNL1        0.0769
     32 C         142.2227  139.4014  167.2672 C.3     1  UNL1        0.0147
     33 C         142.5769  139.6539  168.7028 C.3     1  UNL1        0.0671
     34 C         143.0249  141.0184  169.1358 C.3     1  UNL1        0.2640
     35 F         143.4972  142.1309  170.0243 F       1  UNL1       -0.2043
     36 F         143.0953  140.2928  170.4468 F       1  UNL1       -0.2043
     37 C         143.1185  142.1304  168.1335 C.3     1  UNL1        0.0671
     38 C         142.7643  141.8779  166.6980 C.3     1  UNL1        0.0147
@<TRIPOS>BOND
     1    11    12    1
     2    12    13   ar
     3    13    14   ar
     4    14    17    1
     5    17    18    1
     6    17    19    1
     7    14    15   ar
     8     3    15    1
     9     3     4    1
    10     5     4    1
    11     5     6    1
    12     6     7    1
    13     8     7    1
    14     8     9    1
    15     8    10    1
    16    10     2    1
    17     2     1    1
    18    20     1    1
    19    20    27    1
    20    27    28   am
    21    28    29    2
    22    28    31    1
    23    31    32    1
    24    32    33    1
    25    33    34    1
    26    34    35    1
    27    34    36    1
    28    34    37    1
    29    37    38    1
    30    20    21    1
    31    21    22   ar
    32    22    23   ar
    33    23    24   ar
    34    24    25   ar
    35    25    26   ar
    36    15    16   ar
    37    16    12   ar
    38     9     3    1
    39    38    31    1
    40    26    21   ar
    41    10     5    1
    42    27    30    1
@<TRIPOS>MOLECULE
*****
 38 42 0 0 0
SMALL
GASTEIGER

@<TRIPOS>ATOM
      1 C         140.9796  141.1300  165.8763 C.3     1  UNL1        0.0414
      2 C         142.2487  140.3567  166.0801 C.3     1  UNL1        0.0741
      3 C         142.3428  140.4708  166.0274 C.3     1  UNL1        0.1092
      4 C         143.1668  139.3903  165.3922 C.3     1  UNL1        0.0404
      5 C         144.3959  139.7465  164.6097 C.3     1  UNL1        0.0594
      6 C         145.4902  140.5343  163.9525 C.3     1  UNL1        0.0174
      7 C         145.2484  141.9876  164.2343 C.3     1  UNL1        0.0174
      8 C         144.0047  142.0980  165.0656 C.3     1  UNL1        0.0594
      9 C         142.7480  141.9076  165.8802 C.3     1  UNL1        0.0404
     10 N         143.4778  140.7129  165.2976 N.3     1  UNL1       -0.2750
     11 C         137.6262  138.5444  167.1448 C.3     1  UNL1        0.0756
     12 C         138.9273  139.2444  167.4043 C.ar    1  UNL1        0.1604
     13 N         139.5169  139.8888  168.6238 N.ar    1  UNL1       -0.2147
     14 C         140.8681  140.4266  168.2565 C.ar    1  UNL1        0.1370
     15 N         141.1136  140.1147  166.8099 N.ar    1  UNL1       -0.2385
     16 N         139.9141  139.3840  166.2833 N.ar    1  UNL1       -0.1534
     17 C         141.8087  141.1495  169.1744 C.3     1  UNL1        0.0584
     18 C         142.8803  140.3907  169.8995 C.3     1  UNL1        0.0080
     19 C         141.6777  142.6314  169.3674 C.3     1  UNL1        0.0080
     20 C         140.4058  141.2801  164.4986 C.3     1  UNL1        0.0954
     21 C         139.4656  142.4091  164.1966 C.ar    1  UNL1       -0.0045
     22 C         138.7010  142.4235  162.9060 C.ar    1  UNL1       -0.0027
     23 C         137.7607  143.5525  162.6039 C.ar    1  UNL1       -0.0003
     24 C         137.5850  144.6671  163.5923 C.ar    1  UNL1       -0.0000
     25 C         138.3496  144.6527  164.8828 C.ar    1  UNL1       -0.0003
     26 C         139.2899  143.5237  165.1849 C.ar    1  UNL1       -0.0027
     27 N         140.7723  140.3011  163.4227 N.am    1  UNL1       -0.3022
     28 C         141.6553  140.7292  162.2882 C.2     1  UNL1        0.2222
     29 O         142.2561  142.0870  162.0745 O.2     1  UNL1       -0.2751
     30 H         140.4332  139.3776  163.4611 H       1  UNL1        0.1497
     31 C         142.0218  139.7503  161.2124 C.3     1  UNL1        0.0769
     32 C         141.8250  140.1125  159.7702 C.3     1  UNL1        0.0147
     33 C         142.1915  139.1336  158.6943 C.3     1  UNL1        0.0671
     34 C         142.7546  137.7924  159.0608 C.3     1  UNL1        0.2640
     35 F         143.3172  136.4104  158.9078 F       1  UNL1       -0.2043
     36 F         142.7533  137.6747  157.5654 F       1  UNL1       -0.2043
     37 C         142.9513  137.4302  160.5030 C.3     1  UNL1        0.0671
     38 C         142.5849  138.4091  161.5788 C.3     1  UNL1        0.0147
@<TRIPOS>BOND
     1    11    12    1
     2    12    13   ar
     3    13    14   ar
     4    14    17    1
     5    17    18    1
     6    17    19    1
     7    14    15   ar
     8     3    15    1
     9     3     4    1
    10     5     4    1
    11     5     6    1
    12     6     7    1
    13     8     7    1
    14     8     9    1
    15     8    10    1
    16    10     2    1
    17     2     1    1
    18    20     1    1
    19    20    27    1
    20    27    28   am
    21    28    29    2
    22    28    31    1
    23    31    32    1
    24    32    33    1
    25    33    34    1
    26    34    35    1
    27    34    36    1
    28    34    37    1
    29    37    38    1
    30    20    21    1
    31    21    22   ar
    32    22    23   ar
    33    23    24   ar
    34    24    25   ar
    35    25    26   ar
    36    15    16   ar
    37    16    12   ar
    38     9     3    1
    39    38    31    1
    40    26    21   ar
    41    10     5    1
    42    27    30    1
@<TRIPOS>MOLECULE
*****
 38 42 0 0 0
SMALL
GASTEIGER

@<TRIPOS>ATOM
      1 C         141.6050  140.6260  165.4179 C.3     1  UNL1        0.0414
      2 C         141.5207  141.9886  166.0393 C.3     1  UNL1        0.0741
      3 C         141.5390  142.0902  165.9209 C.3     1  UNL1        0.1092
      4 C         140.1961  142.6450  166.2933 C.3     1  UNL1        0.0404
      5 C         139.6155  143.7891  165.5161 C.3     1  UNL1        0.0594
      6 C         139.4390  144.8834  164.5055 C.3     1  UNL1        0.0174
      7 C         140.6545  144.9033  163.6268 C.3     1  UNL1        0.0174
      8 C         141.5823  143.8214  164.0944 C.3     1  UNL1        0.0594
      9 C         142.3014  142.6796  164.7714 C.3     1  UNL1        0.0404
     10 N         140.9402  143.1327  165.2621 N.3     1  UNL1       -0.2750
     11 C         144.0737  137.6519  166.9611 C.3     1  UNL1        0.0756
     12 C         143.2821  138.8907  167.2590 C.ar    1  UNL1        0.1604
     13 N         142.7440  139.4803  168.5289 N.ar    1  UNL1       -0.2147
     14 C         142.0256  140.7505  168.1823 C.ar    1  UNL1        0.1370
     15 N         142.1196  140.9461  166.6981 N.ar    1  UNL1       -0.2385
     16 N         142.8962  139.7966  166.1274 N.ar    1  UNL1       -0.1534
     17 C         141.3344  141.6648  169.1500 C.3     1  UNL1        0.0584
     18 C         142.0143  142.9191  169.6130 C.3     1  UNL1        0.0080
     19 C         139.9633  141.3248  169.6547 C.3     1  UNL1        0.0080
     20 C         140.4261  140.0638  164.6804 C.3     1  UNL1        0.0954
     21 C         139.4481  139.1779  165.3936 C.ar    1  UNL1       -0.0045
     22 C         139.2098  137.7792  164.9067 C.ar    1  UNL1       -0.0027
     23 C         138.2318  136.8933  165.6199 C.ar    1  UNL1       -0.0003
     24 C         137.4921  137.4060  166.8200 C.ar    1  UNL1       -0.0000
     25 C         137.7304  138.8046  167.3068 C.ar    1  UNL1       -0.0003
     26 C         138.7084  139.6906  166.5936 C.ar    1  UNL1       -0.0027
     27 N         140.2251  140.3875  163.2295 N.am    1  UNL1       -0.3022
     28 C         138.9644  141.0646  162.7798 C.2     1  UNL1        0.2222
     29 O         137.8098  141.4858  163.6397 O.2     1  UNL1       -0.2751
     30 H         140.9205  140.1555  162.5724 H       1  UNL1        0.1497
     31 C         138.7634  141.3882  161.3290 C.3     1  UNL1        0.0769
     32 C         139.1716  142.7296  160.7963 C.3     1  UNL1        0.0147
     33 C         138.9706  143.0533  159.3454 C.3     1  UNL1        0.0671
     34 C         138.3613  142.0354  158.4274 C.3     1  UNL1        0.2640
     35 F         137.8298  141.4077  157.1730 F       1  UNL1       -0.2043
     36 F         138.5850  143.1589  157.4590 F       1  UNL1       -0.2043
     37 C         137.9531  140.6939  158.9601 C.3     1  UNL1        0.0671
     38 C         138.1541  140.3703  160.4109 C.3     1  UNL1        0.0147
@<TRIPOS>BOND
     1    11    12    1
     2    12    13   ar
     3    13    14   ar
     4    14    17    1
     5    17    18    1
     6    17    19    1
     7    14    15   ar
     8     3    15    1
     9     3     4    1
    10     5     4    1
    11     5     6    1
    12     6     7    1
    13     8     7    1
    14     8     9    1
    15     8    10    1
    16    10     2    1
    17     2     1    1
    18    20     1    1
    19    20    27    1
    20    27    28   am
    21    28    29    2
    22    28    31    1
    23    31    32    1
    24    32    33    1
    25    33    34    1
    26    34    35    1
    27    34    36    1
    28    34    37    1
    29    37    38    1
    30    20    21    1
    31    21    22   ar
    32    22    23   ar
    33    23    24   ar
    34    24    25   ar
    35    25    26   ar
    36    15    16   ar
    37    16    12   ar
    38     9     3    1
    39    38    31    1
    40    26    21   ar
    41    10     5    1
    42    27    30    1
@<TRIPOS>MOLECULE
*****
 38 42 0 0 0
SMALL
GASTEIGER

@<TRIPOS>ATOM
      1 C         141.4071  141.9875  161.7574 C.3     1  UNL1        0.0414
      2 C         142.1019  143.2963  161.9900 C.3     1  UNL1        0.0741
      3 C         142.2317  143.2359  162.0545 C.3     1  UNL1        0.1092
      4 C         142.1726  144.3653  163.0399 C.3     1  UNL1        0.0404
      5 C         143.2155  144.4806  164.1118 C.3     1  UNL1        0.0594
      6 C         144.4145  144.2080  164.9710 C.3     1  UNL1        0.0174
      7 C         145.0848  142.9706  164.4520 C.3     1  UNL1        0.0174
      8 C         144.3002  142.4784  163.2721 C.3     1  UNL1        0.0594
      9 C         143.3337  142.2219  162.1411 C.3     1  UNL1        0.0404
     10 N         143.1448  143.4117  163.0619 N.3     1  UNL1       -0.2750
     11 C         139.8135  141.6491  157.7140 C.3     1  UNL1        0.0756
     12 C         140.0037  142.4313  158.9797 C.ar    1  UNL1        0.1604
     13 N         139.1645  143.4543  159.6860 N.ar    1  UNL1       -0.2147
     14 C         139.8968  143.8803  160.9238 C.ar    1  UNL1        0.1370
     15 N         141.1888  143.1205  160.9825 N.ar    1  UNL1       -0.2385
     16 N         141.2549  142.2249  159.7810 N.ar    1  UNL1       -0.1534
     17 C         139.4209  144.8889  161.9268 C.3     1  UNL1        0.0584
     18 C         139.8114  146.3302  161.7844 C.3     1  UNL1        0.0080
     19 C         138.5543  144.4564  163.0723 C.3     1  UNL1        0.0080
     20 C         140.5553  141.3884  162.8369 C.3     1  UNL1        0.0954
     21 C         139.6351  140.2471  162.5196 C.ar    1  UNL1       -0.0045
     22 C         138.4618  140.4604  161.6096 C.ar    1  UNL1       -0.0027
     23 C         137.5415  139.3192  161.2922 C.ar    1  UNL1       -0.0003
     24 C         137.7946  137.9646  161.8849 C.ar    1  UNL1       -0.0000
     25 C         138.9678  137.7513  162.7948 C.ar    1  UNL1       -0.0003
     26 C         139.8881  138.8925  163.1122 C.ar    1  UNL1       -0.0027
     27 N         140.6236  141.9306  164.2339 N.am    1  UNL1       -0.3022
     28 C         141.5491  141.3068  165.2360 C.2     1  UNL1        0.2222
     29 O         142.4700  140.1439  165.0130 O.2     1  UNL1       -0.2751
     30 H         140.0609  142.6958  164.4930 H       1  UNL1        0.1497
     31 C         141.6174  141.8490  166.6329 C.3     1  UNL1        0.0769
     32 C         142.9039  141.7822  167.4013 C.3     1  UNL1        0.0147
     33 C         142.9722  142.3244  168.7983 C.3     1  UNL1        0.0671
     34 C         141.7539  142.9333  169.4267 C.3     1  UNL1        0.2640
     35 F         140.8767  143.5995  170.4450 F       1  UNL1       -0.2043
     36 F         142.7358  143.0978  170.5487 F       1  UNL1       -0.2043
     37 C         140.4674  143.0002  168.6584 C.3     1  UNL1        0.0671
     38 C         140.3991  142.4580  167.2615 C.3     1  UNL1        0.0147
@<TRIPOS>BOND
     1    11    12    1
     2    12    13   ar
     3    13    14   ar
     4    14    17    1
     5    17    18    1
     6    17    19    1
     7    14    15   ar
     8     3    15    1
     9     3     4    1
    10     5     4    1
    11     5     6    1
    12     6     7    1
    13     8     7    1
    14     8     9    1
    15     8    10    1
    16    10     2    1
    17     2     1    1
    18    20     1    1
    19    20    27    1
    20    27    28   am
    21    28    29    2
    22    28    31    1
    23    31    32    1
    24    32    33    1
    25    33    34    1
    26    34    35    1
    27    34    36    1
    28    34    37    1
    29    37    38    1
    30    20    21    1
    31    21    22   ar
    32    22    23   ar
    33    23    24   ar
    34    24    25   ar
    35    25    26   ar
    36    15    16   ar
    37    16    12   ar
    38     9     3    1
    39    38    31    1
    40    26    21   ar
    41    10     5    1
    42    27    30    1
@<TRIPOS>MOLECULE
*****
 38 42 0 0 0
SMALL
GASTEIGER

@<TRIPOS>ATOM
      1 C         140.8938  140.6384  162.4884 C.3     1  UNL1        0.0414
      2 C         141.3281  139.4081  163.2286 C.3     1  UNL1        0.0741
      3 C         141.4809  139.4427  163.2184 C.3     1  UNL1        0.1092
      4 C         141.6285  138.8392  164.5836 C.3     1  UNL1        0.0404
      5 C         142.9749  138.7970  165.2434 C.3     1  UNL1        0.0594
      6 C         144.4430  138.9646  165.5015 C.3     1  UNL1        0.0174
      7 C         145.0499  139.6372  164.3060 C.3     1  UNL1        0.0174
      8 C         143.9569  139.8852  163.3090 C.3     1  UNL1        0.0594
      9 C         142.6797  140.0041  162.5129 C.3     1  UNL1        0.0404
     10 N         142.6745  139.3659  163.8884 N.3     1  UNL1       -0.2750
     11 C         137.8410  140.0617  159.5341 C.3     1  UNL1        0.0756
     12 C         138.3853  139.7534  160.8975 C.ar    1  UNL1        0.1604
     13 N         137.7397  139.3467  162.1889 N.ar    1  UNL1       -0.2147
     14 C         138.8206  139.1808  163.2155 C.ar    1  UNL1        0.1370
     15 N         140.1344  139.4850  162.5586 N.ar    1  UNL1       -0.2385
     16 N         139.8653  139.8389  161.1259 N.ar    1  UNL1       -0.1534
     17 C         138.6227  138.7809  164.6476 C.3     1  UNL1        0.0584
     18 C         138.2639  139.8157  165.6725 C.3     1  UNL1        0.0080
     19 C         138.7835  137.3462  165.0549 C.3     1  UNL1        0.0080
     20 C         140.7106  141.9317  163.2257 C.3     1  UNL1        0.0954
     21 C         140.5649  143.2154  162.4635 C.ar    1  UNL1       -0.0045
     22 C         141.2253  143.3725  161.1259 C.ar    1  UNL1       -0.0027
     23 C         141.0796  144.6562  160.3637 C.ar    1  UNL1       -0.0003
     24 C         140.2735  145.7828  160.9391 C.ar    1  UNL1       -0.0000
     25 C         139.6131  145.6256  162.2767 C.ar    1  UNL1       -0.0003
     26 C         139.7588  144.3420  163.0389 C.ar    1  UNL1       -0.0027
     27 N         140.6731  141.9414  164.7253 N.am    1  UNL1       -0.3022
     28 C         141.8650  142.4167  165.5022 C.2     1  UNL1        0.2222
     29 O         143.1664  142.9129  164.9452 O.2     1  UNL1       -0.2751
     30 H         139.8663  141.6359  165.1995 H       1  UNL1        0.1497
     31 C         141.8275  142.4265  167.0017 C.3     1  UNL1        0.0769
     32 C         140.5224  142.6094  167.7181 C.3     1  UNL1        0.0147
     33 C         140.4848  142.6192  169.2176 C.3     1  UNL1        0.0671
     34 C         141.7525  142.4460  170.0006 C.3     1  UNL1        0.2640
     35 F         142.6785  142.3212  171.1741 F       1  UNL1       -0.2043
     36 F         140.7689  142.5856  171.1246 F       1  UNL1       -0.2043
     37 C         143.0576  142.2630  169.2843 C.3     1  UNL1        0.0671
     38 C         143.0951  142.2532  167.7848 C.3     1  UNL1        0.0147
@<TRIPOS>BOND
     1    11    12    1
     2    12    13   ar
     3    13    14   ar
     4    14    17    1
     5    17    18    1
     6    17    19    1
     7    14    15   ar
     8     3    15    1
     9     3     4    1
    10     5     4    1
    11     5     6    1
    12     6     7    1
    13     8     7    1
    14     8     9    1
    15     8    10    1
    16    10     2    1
    17     2     1    1
    18    20     1    1
    19    20    27    1
    20    27    28   am
    21    28    29    2
    22    28    31    1
    23    31    32    1
    24    32    33    1
    25    33    34    1
    26    34    35    1
    27    34    36    1
    28    34    37    1
    29    37    38    1
    30    20    21    1
    31    21    22   ar
    32    22    23   ar
    33    23    24   ar
    34    24    25   ar
    35    25    26   ar
    36    15    16   ar
    37    16    12   ar
    38     9     3    1
    39    38    31    1
    40    26    21   ar
    41    10     5    1
    42    27    30    1
