@<TRIPOS>MOLECULE
*****
 44 47 0 0 0
SMALL
GASTEIGER

@<TRIPOS>ATOM
      1 C         140.1601  140.5171  162.7784 C.3     1  UNL1        0.0778
      2 C         140.1389  140.3891  164.2729 C.ar    1  UNL1        0.0373
      3 C         140.2943  141.6085  165.1323 C.ar    1  UNL1        0.0023
      4 C         140.2731  141.4806  166.6267 C.ar    1  UNL1        0.0181
      5 C         140.4286  142.7000  167.4862 C.ar    1  UNL1        0.0082
      6 C         140.4074  142.5720  168.9806 C.ar    1  UNL1        0.0347
      7 BR        140.5628  143.7915  169.8401 Br      1  UNL1       -0.0490
      8 C         140.2308  141.2245  169.6155 C.ar    1  UNL1        0.0082
      9 C         140.0753  140.0051  168.7560 C.ar    1  UNL1        0.0197
     10 C         140.0965  140.1330  167.2616 C.ar    1  UNL1        0.0844
     11 N         139.9411  138.9136  166.4021 N.ar    1  UNL1       -0.2119
     12 C         139.9623  139.0416  164.9077 C.ar    1  UNL1        0.2211
     13 O         139.8069  137.8221  164.0482 O.3     1  UNL1       -0.4563
     14 C         141.0119  137.0138  163.6683 C.3     1  UNL1        0.2542
     15 C         143.9165  141.4710  161.9245 C.ar    1  UNL1        0.1078
     16 C         142.6073  141.3800  162.6509 C.ar    1  UNL1        0.0217
     17 C         141.4693  140.6080  162.0520 C.ar    1  UNL1       -0.0109
     18 C         141.6403  139.9270  160.7265 C.ar    1  UNL1        0.0305
     19 C         142.9495  140.0179  160.0000 C.ar    1  UNL1        0.1320
     20 N         144.0876  140.7899  160.5990 N.ar    1  UNL1       -0.2245
     21 N         143.1206  139.3368  158.6746 N.pl3   1  UNL1       -0.2897
     22 C         142.6906  137.9101  158.5035 C.3     1  UNL1        0.1136
     23 C         143.7217  140.0825  157.5202 C.3     1  UNL1        0.1136
     24 S         145.0546  142.2430  162.5235 S.3     1  UNL1       -0.0949
     25 C         145.4559  140.3423  164.2487 C.3     1  UNL1        0.0130
     26 C         145.8853  141.6308  163.6122 C.3     1  UNL1        0.0637
     27 C         138.8721  140.5542  162.0105 C.3     1  UNL1        0.1161
     28 O         138.9430  139.0681  161.8198 O.3     1  UNL1       -0.3820
     29 H         138.2853  138.7948  161.1613 H       1  UNL1        0.2107
     30 C         138.8012  142.0403  162.2013 C.ar    1  UNL1        0.0117
     31 C         139.3819  142.9578  161.1665 C.ar    1  UNL1        0.0559
     32 C         139.3110  144.4440  161.3572 C.ar    1  UNL1        0.2272
     33 N         138.6594  145.0126  162.5827 N.ar    1  UNL1       -0.1767
     34 C         138.0786  144.0951  163.6175 C.ar    1  UNL1        0.2272
     35 C         138.1495  142.6090  163.4268 C.ar    1  UNL1        0.0559
     36 O         139.8919  145.3615  160.3224 O.3     1  UNL1       -0.4561
     37 C         140.6796  144.7974  159.1772 C.3     1  UNL1        0.2542
     38 O         137.4269  144.6637  164.8431 O.3     1  UNL1       -0.4561
     39 C         138.2710  145.1725  165.9738 C.3     1  UNL1        0.2542
     40 C         137.5841  140.5913  161.2427 C.3     1  UNL1        0.0491
     41 C         137.4286  139.7676  159.9987 C.3     1  UNL1        0.0750
     42 N         138.2046  140.1196  158.7642 N.3     1  UNL1       -0.2702
     43 C         139.2517  139.1803  158.2433 C.3     1  UNL1        0.0897
     44 C         137.9336  141.4109  158.0507 C.3     1  UNL1        0.0897
@<TRIPOS>BOND
     1    25    26    1
     2    26    24    1
     3    24    15    1
     4    15    16   ar
     5    16    17   ar
     6     1    17    1
     7     1     2    1
     8     2     3   ar
     9     3     4   ar
    10     4     5   ar
    11     5     6   ar
    12     6     7    1
    13     6     8   ar
    14     8     9   ar
    15     9    10   ar
    16    10    11   ar
    17    11    12   ar
    18    12    13    1
    19    13    14    1
    20     1    27    1
    21    27    28    1
    22    27    40    1
    23    40    41    1
    24    41    42    1
    25    42    43    1
    26    42    44    1
    27    27    30    1
    28    30    31   ar
    29    31    32   ar
    30    32    36    1
    31    36    37    1
    32    32    33   ar
    33    33    34   ar
    34    34    38    1
    35    38    39    1
    36    34    35   ar
    37    17    18   ar
    38    18    19   ar
    39    19    21    1
    40    21    22    1
    41    21    23    1
    42    19    20   ar
    43    20    15   ar
    44    12     2   ar
    45    35    30   ar
    46    10     4   ar
    47    28    29    1
@<TRIPOS>MOLECULE
*****
 44 47 0 0 0
SMALL
GASTEIGER

@<TRIPOS>ATOM
      1 C         140.1933  140.5369  162.7201 C.3     1  UNL1        0.0778
      2 C         140.1539  140.3989  164.2133 C.ar    1  UNL1        0.0373
      3 C         140.3139  141.6106  165.0829 C.ar    1  UNL1        0.0023
      4 C         140.2745  141.4727  166.5760 C.ar    1  UNL1        0.0181
      5 C         140.4344  142.6845  167.4456 C.ar    1  UNL1        0.0082
      6 C         140.3951  142.5465  168.9387 C.ar    1  UNL1        0.0347
      7 BR        140.5550  143.7582  169.8083 Br      1  UNL1       -0.0490
      8 C         140.1957  141.1969  169.5622 C.ar    1  UNL1        0.0082
      9 C         140.0358  139.9852  168.6927 C.ar    1  UNL1        0.0197
     10 C         140.0752  140.1231  167.1996 C.ar    1  UNL1        0.0844
     11 N         139.9152  138.9114  166.3300 N.ar    1  UNL1       -0.2119
     12 C         139.9546  139.0493  164.8368 C.ar    1  UNL1        0.2211
     13 O         139.7946  137.8376  163.9672 O.3     1  UNL1       -0.4563
     14 C         140.9997  137.0438  163.5579 C.3     1  UNL1        0.2542
     15 C         143.9956  141.3370  161.9125 C.ar    1  UNL1        0.1078
     16 C         142.6775  141.2919  162.6270 C.ar    1  UNL1        0.0217
     17 C         141.5114  140.5820  162.0056 C.ar    1  UNL1       -0.0109
     18 C         141.6633  139.9171  160.6696 C.ar    1  UNL1        0.0305
     19 C         142.9815  139.9622  159.9550 C.ar    1  UNL1        0.1320
     20 N         144.1476  140.6721  160.5765 N.ar    1  UNL1       -0.2245
     21 N         143.1334  139.2973  158.6191 N.pl3   1  UNL1       -0.2897
     22 C         142.7393  137.8603  158.4474 C.3     1  UNL1        0.1136
     23 C         143.6795  140.0695  157.4548 C.3     1  UNL1        0.1136
     24 S         145.1617  142.0469  162.5339 S.3     1  UNL1       -0.0949
     25 C         145.3864  140.1538  164.2991 C.3     1  UNL1        0.0130
     26 C         145.7988  141.4978  163.7759 C.3     1  UNL1        0.0637
     27 C         138.9145  140.6297  161.9415 C.3     1  UNL1        0.1161
     28 O         138.9161  139.1406  161.7614 O.3     1  UNL1       -0.3820
     29 H         138.2512  138.8943  161.0994 H       1  UNL1        0.2107
     30 C         138.9130  142.1189  162.1216 C.ar    1  UNL1        0.0117
     31 C         138.1913  142.7330  163.2843 C.ar    1  UNL1        0.0559
     32 C         138.1897  144.2221  163.4645 C.ar    1  UNL1        0.2272
     33 N         138.9100  145.0972  162.4819 N.ar    1  UNL1       -0.1767
     34 C         139.6317  144.4831  161.3192 C.ar    1  UNL1        0.2272
     35 C         139.6332  142.9939  161.1391 C.ar    1  UNL1        0.0559
     36 O         137.4679  144.8362  164.6272 O.3     1  UNL1       -0.4561
     37 C         138.2059  145.1234  165.9012 C.3     1  UNL1        0.2542
     38 O         140.3520  145.3581  160.3365 O.3     1  UNL1       -0.4561
     39 C         140.1641  145.1445  158.8637 C.3     1  UNL1        0.2542
     40 C         137.6358  140.7226  161.1630 C.3     1  UNL1        0.0491
     41 C         137.4426  139.8827  159.9352 C.3     1  UNL1        0.0750
     42 N         138.2324  140.1757  158.6941 N.3     1  UNL1       -0.2702
     43 C         138.0335  141.4726  157.9673 C.3     1  UNL1        0.0897
     44 C         139.2213  139.1717  158.1799 C.3     1  UNL1        0.0897
@<TRIPOS>BOND
     1    25    26    1
     2    26    24    1
     3    24    15    1
     4    15    16   ar
     5    16    17   ar
     6     1    17    1
     7     1     2    1
     8     2     3   ar
     9     3     4   ar
    10     4     5   ar
    11     5     6   ar
    12     6     7    1
    13     6     8   ar
    14     8     9   ar
    15     9    10   ar
    16    10    11   ar
    17    11    12   ar
    18    12    13    1
    19    13    14    1
    20     1    27    1
    21    27    28    1
    22    27    40    1
    23    40    41    1
    24    41    42    1
    25    42    43    1
    26    42    44    1
    27    27    30    1
    28    30    31   ar
    29    31    32   ar
    30    32    36    1
    31    36    37    1
    32    32    33   ar
    33    33    34   ar
    34    34    38    1
    35    38    39    1
    36    34    35   ar
    37    17    18   ar
    38    18    19   ar
    39    19    21    1
    40    21    22    1
    41    21    23    1
    42    19    20   ar
    43    20    15   ar
    44    12     2   ar
    45    35    30   ar
    46    10     4   ar
    47    28    29    1
@<TRIPOS>MOLECULE
*****
 44 47 0 0 0
SMALL
GASTEIGER

@<TRIPOS>ATOM
      1 C         142.2489  141.0322  163.2258 C.3     1  UNL1        0.0778
      2 C         142.5100  141.3685  164.6642 C.ar    1  UNL1        0.0373
      3 C         141.6792  140.7410  165.7439 C.ar    1  UNL1        0.0023
      4 C         141.9403  141.0772  167.1822 C.ar    1  UNL1        0.0181
      5 C         141.1094  140.4496  168.2619 C.ar    1  UNL1        0.0082
      6 C         141.3705  140.7860  169.7003 C.ar    1  UNL1        0.0347
      7 BR        140.5397  140.1584  170.7800 Br      1  UNL1       -0.0490
      8 C         142.4625  141.7498  170.0588 C.ar    1  UNL1        0.0082
      9 C         143.2933  142.3774  168.9791 C.ar    1  UNL1        0.0197
     10 C         143.0323  142.0411  167.5408 C.ar    1  UNL1        0.0844
     11 N         143.8631  142.6687  166.4611 N.ar    1  UNL1       -0.2119
     12 C         143.6020  142.3324  165.0227 C.ar    1  UNL1        0.2211
     13 O         144.4328  142.9600  163.9430 O.3     1  UNL1       -0.4563
     14 C         144.0716  144.3150  163.4107 C.3     1  UNL1        0.2542
     15 C         139.8075  143.9062  161.9890 C.ar    1  UNL1        0.1078
     16 C         140.4861  142.9093  162.8810 C.ar    1  UNL1        0.0217
     17 C         141.5704  142.0291  162.3337 C.ar    1  UNL1       -0.0109
     18 C         141.9761  142.1457  160.8944 C.ar    1  UNL1        0.0305
     19 C         141.2975  143.1426  160.0023 C.ar    1  UNL1        0.1320
     20 N         140.2133  144.0228  160.5495 N.ar    1  UNL1       -0.2245
     21 N         141.7033  143.2592  158.5629 N.pl3   1  UNL1       -0.2897
     22 C         140.6891  143.0473  157.4783 C.3     1  UNL1        0.1136
     23 C         143.1232  143.5877  158.2082 C.3     1  UNL1        0.1136
     24 S         138.7233  144.7864  162.5362 S.3     1  UNL1       -0.0949
     25 C         137.6331  143.8999  164.7216 C.3     1  UNL1        0.0130
     26 C         138.5161  144.8878  164.0185 C.3     1  UNL1        0.0637
     27 C         142.6663  139.6990  162.6796 C.3     1  UNL1        0.1161
     28 O         144.0900  140.1681  162.6228 O.3     1  UNL1       -0.3820
     29 H         144.6183  139.5364  162.1103 H       1  UNL1        0.2107
     30 C         141.2427  139.2300  162.7364 C.ar    1  UNL1        0.0117
     31 C         140.3437  139.4165  161.5503 C.ar    1  UNL1        0.0559
     32 C         138.9201  138.9474  161.6071 C.ar    1  UNL1        0.2272
     33 N         138.3954  138.2919  162.8500 N.ar    1  UNL1       -0.1767
     34 C         139.2944  138.1054  164.0361 C.ar    1  UNL1        0.2272
     35 C         140.7180  138.5745  163.9793 C.ar    1  UNL1        0.0559
     36 O         138.0211  139.1340  160.4208 O.3     1  UNL1       -0.4561
     37 C         138.4055  140.0909  159.3315 C.3     1  UNL1        0.2542
     38 O         138.7697  137.4499  165.2792 O.3     1  UNL1       -0.4561
     39 C         138.0823  138.2728  166.3281 C.3     1  UNL1        0.2542
     40 C         143.0838  138.3658  162.1334 C.3     1  UNL1        0.0491
     41 C         143.9957  138.2946  160.9445 C.3     1  UNL1        0.0750
     42 N         143.5074  138.7379  159.5972 N.3     1  UNL1       -0.2702
     43 C         143.9903  140.0323  159.0131 C.3     1  UNL1        0.0897
     44 C         142.5362  137.8867  158.8341 C.3     1  UNL1        0.0897
@<TRIPOS>BOND
     1    25    26    1
     2    26    24    1
     3    24    15    1
     4    15    16   ar
     5    16    17   ar
     6     1    17    1
     7     1     2    1
     8     2     3   ar
     9     3     4   ar
    10     4     5   ar
    11     5     6   ar
    12     6     7    1
    13     6     8   ar
    14     8     9   ar
    15     9    10   ar
    16    10    11   ar
    17    11    12   ar
    18    12    13    1
    19    13    14    1
    20     1    27    1
    21    27    28    1
    22    27    40    1
    23    40    41    1
    24    41    42    1
    25    42    43    1
    26    42    44    1
    27    27    30    1
    28    30    31   ar
    29    31    32   ar
    30    32    36    1
    31    36    37    1
    32    32    33   ar
    33    33    34   ar
    34    34    38    1
    35    38    39    1
    36    34    35   ar
    37    17    18   ar
    38    18    19   ar
    39    19    21    1
    40    21    22    1
    41    21    23    1
    42    19    20   ar
    43    20    15   ar
    44    12     2   ar
    45    35    30   ar
    46    10     4   ar
    47    28    29    1
@<TRIPOS>MOLECULE
*****
 44 47 0 0 0
SMALL
GASTEIGER

@<TRIPOS>ATOM
      1 C         140.8560  140.0055  162.0525 C.3     1  UNL1        0.0778
      2 C         140.2130  139.7438  163.3823 C.ar    1  UNL1        0.0373
      3 C         140.6553  140.5108  164.5931 C.ar    1  UNL1        0.0023
      4 C         140.0123  140.2491  165.9228 C.ar    1  UNL1        0.0181
      5 C         140.4546  141.0161  167.1336 C.ar    1  UNL1        0.0082
      6 C         139.8116  140.7544  168.4634 C.ar    1  UNL1        0.0347
      7 BR        140.2539  141.5214  169.6742 Br      1  UNL1       -0.0490
      8 C         138.7263  139.7258  168.5822 C.ar    1  UNL1        0.0082
      9 C         138.2840  138.9588  167.3714 C.ar    1  UNL1        0.0197
     10 C         138.9270  139.2205  166.0417 C.ar    1  UNL1        0.0844
     11 N         138.4847  138.4535  164.8308 N.ar    1  UNL1       -0.2119
     12 C         139.1277  138.7152  163.5011 C.ar    1  UNL1        0.2211
     13 O         138.6855  137.9482  162.2903 O.3     1  UNL1       -0.4563
     14 C         137.5169  138.4302  161.4827 C.3     1  UNL1        0.2542
     15 C         140.3064  142.5221  159.0336 C.ar    1  UNL1        0.1078
     16 C         140.6403  141.2739  159.7955 C.ar    1  UNL1        0.0217
     17 C         140.5221  141.2537  161.2907 C.ar    1  UNL1       -0.0109
     18 C         140.0701  142.4816  162.0240 C.ar    1  UNL1        0.0305
     19 C         139.7362  143.7299  161.2621 C.ar    1  UNL1        0.1320
     20 N         139.8544  143.7501  159.7669 N.ar    1  UNL1       -0.2245
     21 N         139.2842  144.9578  161.9954 N.pl3   1  UNL1       -0.2897
     22 C         139.7042  146.3153  161.5151 C.3     1  UNL1        0.1136
     23 C         138.4123  144.8282  163.2091 C.3     1  UNL1        0.1136
     24 S         140.4245  142.5424  157.5384 S.3     1  UNL1       -0.0949
     25 C         142.7927  143.5573  157.2044 C.3     1  UNL1        0.0130
     26 C         141.7776  142.4981  156.8923 C.3     1  UNL1        0.0637
     27 C         141.8329  139.0189  161.4847 C.3     1  UNL1        0.1161
     28 O         140.7604  138.4718  160.5901 O.3     1  UNL1       -0.3820
     29 H         141.0646  137.6417  160.1910 H       1  UNL1        0.2107
     30 C         142.9054  139.5660  162.3794 C.ar    1  UNL1        0.0117
     31 C         143.5126  140.9066  162.0892 C.ar    1  UNL1        0.0559
     32 C         144.5851  141.4537  162.9839 C.ar    1  UNL1        0.2272
     33 N         145.0504  140.6603  164.1687 N.ar    1  UNL1       -0.1767
     34 C         144.4433  139.3197  164.4588 C.ar    1  UNL1        0.2272
     35 C         143.3708  138.7726  163.5642 C.ar    1  UNL1        0.0559
     36 O         145.1922  142.7944  162.6937 O.3     1  UNL1       -0.4561
     37 C         144.3218  144.0145  162.6328 C.3     1  UNL1        0.2542
     38 O         144.9087  138.5262  165.6437 O.3     1  UNL1       -0.4561
     39 C         143.9080  137.9608  166.6075 C.3     1  UNL1        0.2542
     40 C         142.8098  138.0324  160.9170 C.3     1  UNL1        0.0491
     41 C         142.7748  137.6988  159.4549 C.3     1  UNL1        0.0750
     42 N         142.8324  138.7961  158.4337 N.3     1  UNL1       -0.2702
     43 C         141.9035  138.7742  157.2562 C.3     1  UNL1        0.0897
     44 C         143.8189  139.9152  158.5902 C.3     1  UNL1        0.0897
@<TRIPOS>BOND
     1    25    26    1
     2    26    24    1
     3    24    15    1
     4    15    16   ar
     5    16    17   ar
     6     1    17    1
     7     1     2    1
     8     2     3   ar
     9     3     4   ar
    10     4     5   ar
    11     5     6   ar
    12     6     7    1
    13     6     8   ar
    14     8     9   ar
    15     9    10   ar
    16    10    11   ar
    17    11    12   ar
    18    12    13    1
    19    13    14    1
    20     1    27    1
    21    27    28    1
    22    27    40    1
    23    40    41    1
    24    41    42    1
    25    42    43    1
    26    42    44    1
    27    27    30    1
    28    30    31   ar
    29    31    32   ar
    30    32    36    1
    31    36    37    1
    32    32    33   ar
    33    33    34   ar
    34    34    38    1
    35    38    39    1
    36    34    35   ar
    37    17    18   ar
    38    18    19   ar
    39    19    21    1
    40    21    22    1
    41    21    23    1
    42    19    20   ar
    43    20    15   ar
    44    12     2   ar
    45    35    30   ar
    46    10     4   ar
    47    28    29    1
@<TRIPOS>MOLECULE
*****
 44 47 0 0 0
SMALL
GASTEIGER

@<TRIPOS>ATOM
      1 C         140.9022  140.2925  161.9652 C.3     1  UNL1        0.0778
      2 C         140.1279  139.8954  163.1870 C.ar    1  UNL1        0.0373
      3 C         140.5547  140.3874  164.5382 C.ar    1  UNL1        0.0023
      4 C         139.7805  139.9903  165.7600 C.ar    1  UNL1        0.0181
      5 C         140.2073  140.4823  167.1112 C.ar    1  UNL1        0.0082
      6 C         139.4329  140.0852  168.3330 C.ar    1  UNL1        0.0347
      7 BR        139.8598  140.5772  169.6842 Br      1  UNL1       -0.0490
      8 C         138.2318  139.1961  168.2036 C.ar    1  UNL1        0.0082
      9 C         137.8050  138.7041  166.8524 C.ar    1  UNL1        0.0197
     10 C         138.5793  139.1012  165.6306 C.ar    1  UNL1        0.0844
     11 N         138.1524  138.6092  164.2794 N.ar    1  UNL1       -0.2119
     12 C         138.9268  139.0063  163.0576 C.ar    1  UNL1        0.2211
     13 O         138.4999  138.5143  161.7064 O.3     1  UNL1       -0.4563
     14 C         137.4679  139.2712  160.9242 C.3     1  UNL1        0.2542
     15 C         139.8870  144.1003  161.4970 C.ar    1  UNL1        0.1078
     16 C         140.1326  142.7678  162.1403 C.ar    1  UNL1        0.0217
     17 C         140.6567  141.6251  161.3219 C.ar    1  UNL1       -0.0109
     18 C         140.9352  141.8150  159.8604 C.ar    1  UNL1        0.0305
     19 C         140.6897  143.1477  159.2170 C.ar    1  UNL1        0.1320
     20 N         140.1656  144.2903  160.0353 N.ar    1  UNL1       -0.2245
     21 N         140.9682  143.3376  157.7554 N.pl3   1  UNL1       -0.2897
     22 C         141.6716  144.5744  157.2805 C.3     1  UNL1        0.1136
     23 C         140.5435  142.2907  156.7687 C.3     1  UNL1        0.1136
     24 S         139.3629  145.2430  162.3153 S.3     1  UNL1       -0.0949
     25 C         139.1222  144.8870  164.8776 C.3     1  UNL1        0.0130
     26 C         138.5026  144.9742  163.5143 C.3     1  UNL1        0.0637
     27 C         141.9221  139.3570  161.3868 C.3     1  UNL1        0.1161
     28 O         140.9176  138.8861  160.3772 O.3     1  UNL1       -0.3820
     29 H         141.2537  138.0922  159.9326 H       1  UNL1        0.2107
     30 C         142.9267  139.8279  162.3963 C.ar    1  UNL1        0.0117
     31 C         143.3668  138.9122  163.4998 C.ar    1  UNL1        0.0559
     32 C         144.3713  139.3831  164.5094 C.ar    1  UNL1        0.2272
     33 N         144.9357  140.7696  164.4154 N.ar    1  UNL1       -0.1767
     34 C         144.4956  141.6853  163.3119 C.ar    1  UNL1        0.2272
     35 C         143.4911  141.2144  162.3023 C.ar    1  UNL1        0.0559
     36 O         144.8114  138.4674  165.6129 O.3     1  UNL1       -0.4561
     37 C         143.8147  137.9710  166.6180 C.3     1  UNL1        0.2542
     38 O         145.0600  143.0719  163.2178 O.3     1  UNL1       -0.4561
     39 C         144.2045  144.1975  162.7165 C.3     1  UNL1        0.2542
     40 C         142.9420  138.4215  160.8083 C.3     1  UNL1        0.0491
     41 C         143.8149  138.8716  159.6745 C.3     1  UNL1        0.0750
     42 N         143.2772  138.8868  158.2743 N.3     1  UNL1       -0.2702
     43 C         142.7555  137.6230  157.6575 C.3     1  UNL1        0.0897
     44 C         143.2611  140.1660  157.4909 C.3     1  UNL1        0.0897
@<TRIPOS>BOND
     1    25    26    1
     2    26    24    1
     3    24    15    1
     4    15    16   ar
     5    16    17   ar
     6     1    17    1
     7     1     2    1
     8     2     3   ar
     9     3     4   ar
    10     4     5   ar
    11     5     6   ar
    12     6     7    1
    13     6     8   ar
    14     8     9   ar
    15     9    10   ar
    16    10    11   ar
    17    11    12   ar
    18    12    13    1
    19    13    14    1
    20     1    27    1
    21    27    28    1
    22    27    40    1
    23    40    41    1
    24    41    42    1
    25    42    43    1
    26    42    44    1
    27    27    30    1
    28    30    31   ar
    29    31    32   ar
    30    32    36    1
    31    36    37    1
    32    32    33   ar
    33    33    34   ar
    34    34    38    1
    35    38    39    1
    36    34    35   ar
    37    17    18   ar
    38    18    19   ar
    39    19    21    1
    40    21    22    1
    41    21    23    1
    42    19    20   ar
    43    20    15   ar
    44    12     2   ar
    45    35    30   ar
    46    10     4   ar
    47    28    29    1
@<TRIPOS>MOLECULE
*****
 44 47 0 0 0
SMALL
GASTEIGER

@<TRIPOS>ATOM
      1 C         141.9350  140.9503  162.4588 C.3     1  UNL1        0.0778
      2 C         142.1940  141.3364  163.8849 C.ar    1  UNL1        0.0373
      3 C         141.1449  141.0955  164.9295 C.ar    1  UNL1        0.0023
      4 C         141.4038  141.4817  166.3556 C.ar    1  UNL1        0.0181
      5 C         140.3547  141.2408  167.4002 C.ar    1  UNL1        0.0082
      6 C         140.6137  141.6269  168.8264 C.ar    1  UNL1        0.0347
      7 BR        139.5645  141.3860  169.8710 Br      1  UNL1       -0.0490
      8 C         141.9218  142.2540  169.2079 C.ar    1  UNL1        0.0082
      9 C         142.9710  142.4949  168.1633 C.ar    1  UNL1        0.0197
     10 C         142.7120  142.1087  166.7372 C.ar    1  UNL1        0.0844
     11 N         143.7612  142.3496  165.6926 N.ar    1  UNL1       -0.2119
     12 C         143.5022  141.9635  164.2664 C.ar    1  UNL1        0.2211
     13 O         144.5513  142.2044  163.2218 O.3     1  UNL1       -0.4563
     14 C         145.9300  141.6409  163.3996 C.3     1  UNL1        0.2542
     15 C         143.0445  142.7907  159.1224 C.ar    1  UNL1        0.1078
     16 C         142.9487  141.7599  160.2078 C.ar    1  UNL1        0.0217
     17 C         142.0309  141.9811  161.3734 C.ar    1  UNL1       -0.0109
     18 C         141.2088  143.2332  161.4536 C.ar    1  UNL1        0.0305
     19 C         141.3046  144.2641  160.3681 C.ar    1  UNL1        0.1320
     20 N         142.2225  144.0429  159.2026 N.ar    1  UNL1       -0.2245
     21 N         140.4826  145.5162  160.4483 N.pl3   1  UNL1       -0.2897
     22 C         140.0701  146.2243  159.1920 C.3     1  UNL1        0.1136
     23 C         140.0730  146.0602  161.7849 C.3     1  UNL1        0.1136
     24 S         143.9624  142.5695  157.9568 S.3     1  UNL1       -0.0949
     25 C         146.3660  142.3376  156.9981 C.3     1  UNL1        0.0130
     26 C         145.4484  142.5687  158.1619 C.3     1  UNL1        0.0637
     27 C         141.5802  139.5332  162.1181 C.3     1  UNL1        0.1161
     28 O         142.9396  139.0850  162.5665 O.3     1  UNL1       -0.3820
     29 H         143.0865  138.1681  162.2862 H       1  UNL1        0.2107
     30 C         140.2208  139.9814  161.6697 C.ar    1  UNL1        0.0117
     31 C         139.7874  139.7581  160.2512 C.ar    1  UNL1        0.0559
     32 C         138.4280  140.2063  159.8028 C.ar    1  UNL1        0.2272
     33 N         137.5019  140.8778  160.7730 N.ar    1  UNL1       -0.1767
     34 C         137.9352  141.1011  162.1915 C.ar    1  UNL1        0.2272
     35 C         139.2946  140.6529  162.6399 C.ar    1  UNL1        0.0559
     36 O         137.9947  139.9829  158.3842 O.3     1  UNL1       -0.4561
     37 C         137.7046  141.1557  157.4951 C.3     1  UNL1        0.2542
     38 O         137.0090  141.7727  163.1618 O.3     1  UNL1       -0.4561
     39 C         137.5649  142.6459  164.2474 C.3     1  UNL1        0.2542
     40 C         141.2254  138.1162  161.7774 C.3     1  UNL1        0.0491
     41 C         141.1258  137.0861  162.8633 C.3     1  UNL1        0.0750
     42 N         140.8728  137.5113  164.2794 N.3     1  UNL1       -0.2702
     43 C         142.0254  137.7314  165.2137 C.3     1  UNL1        0.0897
     44 C         139.4670  137.7164  164.7611 C.3     1  UNL1        0.0897
@<TRIPOS>BOND
     1    25    26    1
     2    26    24    1
     3    24    15    1
     4    15    16   ar
     5    16    17   ar
     6     1    17    1
     7     1     2    1
     8     2     3   ar
     9     3     4   ar
    10     4     5   ar
    11     5     6   ar
    12     6     7    1
    13     6     8   ar
    14     8     9   ar
    15     9    10   ar
    16    10    11   ar
    17    11    12   ar
    18    12    13    1
    19    13    14    1
    20     1    27    1
    21    27    28    1
    22    27    40    1
    23    40    41    1
    24    41    42    1
    25    42    43    1
    26    42    44    1
    27    27    30    1
    28    30    31   ar
    29    31    32   ar
    30    32    36    1
    31    36    37    1
    32    32    33   ar
    33    33    34   ar
    34    34    38    1
    35    38    39    1
    36    34    35   ar
    37    17    18   ar
    38    18    19   ar
    39    19    21    1
    40    21    22    1
    41    21    23    1
    42    19    20   ar
    43    20    15   ar
    44    12     2   ar
    45    35    30   ar
    46    10     4   ar
    47    28    29    1
@<TRIPOS>MOLECULE
*****
 44 47 0 0 0
SMALL
GASTEIGER

@<TRIPOS>ATOM
      1 C         140.1619  141.9161  160.9385 C.3     1  UNL1        0.0778
      2 C         139.7176  141.3458  162.2528 C.ar    1  UNL1        0.0373
      3 C         140.6707  141.2975  163.4101 C.ar    1  UNL1        0.0023
      4 C         140.2264  140.7273  164.7244 C.ar    1  UNL1        0.0181
      5 C         141.1795  140.6790  165.8816 C.ar    1  UNL1        0.0082
      6 C         140.7352  140.1088  167.1960 C.ar    1  UNL1        0.0347
      7 BR        141.6883  140.0605  168.3532 Br      1  UNL1       -0.0490
      8 C         139.3377  139.5869  167.3530 C.ar    1  UNL1        0.0082
      9 C         138.3846  139.6351  166.1958 C.ar    1  UNL1        0.0197
     10 C         138.8289  140.2053  164.8815 C.ar    1  UNL1        0.0844
     11 N         137.8757  140.2536  163.7242 N.ar    1  UNL1       -0.2119
     12 C         138.3201  140.8239  162.4099 C.ar    1  UNL1        0.2211
     13 O         137.3670  140.8722  161.2527 O.3     1  UNL1       -0.4563
     14 C         137.0814  139.6287  160.4638 C.3     1  UNL1        0.2542
     15 C         139.7706  140.3722  157.3035 C.ar    1  UNL1        0.1078
     16 C         139.5854  141.2737  158.4880 C.ar    1  UNL1        0.0217
     17 C         140.3471  141.0146  159.7540 C.ar    1  UNL1       -0.0109
     18 C         141.2938  139.8540  159.8355 C.ar    1  UNL1        0.0305
     19 C         141.4790  138.9525  158.6510 C.ar    1  UNL1        0.1320
     20 N         140.7174  139.2116  157.3850 N.ar    1  UNL1       -0.2245
     21 N         142.4258  137.7920  158.7325 N.pl3   1  UNL1       -0.2897
     22 C         142.7446  136.9963  157.5016 C.3     1  UNL1        0.1136
     23 C         143.0538  137.4271  160.0450 C.3     1  UNL1        0.1136
     24 S         139.0089  140.6313  156.0375 S.3     1  UNL1       -0.0949
     25 C         136.6630  141.7455  156.1107 C.3     1  UNL1        0.0130
     26 C         137.5136  140.5130  156.0243 C.3     1  UNL1        0.0637
     27 C         140.4211  143.3878  160.8087 C.3     1  UNL1        0.1161
     28 O         138.9692  143.6659  161.0628 O.3     1  UNL1       -0.3820
     29 H         138.7768  144.5939  160.8562 H       1  UNL1        0.2107
     30 C         141.8731  143.1097  160.5547 C.ar    1  UNL1        0.0117
     31 C         142.7863  142.7862  161.6998 C.ar    1  UNL1        0.0559
     32 C         144.2382  142.5081  161.4458 C.ar    1  UNL1        0.2272
     33 N         144.7769  142.5534  160.0466 N.ar    1  UNL1       -0.1767
     34 C         143.8637  142.8768  158.9015 C.ar    1  UNL1        0.2272
     35 C         142.4118  143.1550  159.1555 C.ar    1  UNL1        0.0559
     36 O         145.1515  142.1846  162.5910 O.3     1  UNL1       -0.4561
     37 C         144.7394  142.5143  163.9951 C.3     1  UNL1        0.2542
     38 O         144.4024  142.9222  157.5022 O.3     1  UNL1       -0.4561
     39 C         145.6357  142.1454  157.1479 C.3     1  UNL1        0.2542
     40 C         140.6804  144.8595  160.6790 C.3     1  UNL1        0.0491
     41 C         140.3430  145.7832  161.8117 C.3     1  UNL1        0.0750
     42 N         140.5896  145.3545  163.2278 N.3     1  UNL1       -0.2702
     43 C         141.9781  145.3975  163.7935 C.3     1  UNL1        0.0897
     44 C         139.4475  144.8828  164.0783 C.3     1  UNL1        0.0897
@<TRIPOS>BOND
     1    25    26    1
     2    26    24    1
     3    24    15    1
     4    15    16   ar
     5    16    17   ar
     6     1    17    1
     7     1     2    1
     8     2     3   ar
     9     3     4   ar
    10     4     5   ar
    11     5     6   ar
    12     6     7    1
    13     6     8   ar
    14     8     9   ar
    15     9    10   ar
    16    10    11   ar
    17    11    12   ar
    18    12    13    1
    19    13    14    1
    20     1    27    1
    21    27    28    1
    22    27    40    1
    23    40    41    1
    24    41    42    1
    25    42    43    1
    26    42    44    1
    27    27    30    1
    28    30    31   ar
    29    31    32   ar
    30    32    36    1
    31    36    37    1
    32    32    33   ar
    33    33    34   ar
    34    34    38    1
    35    38    39    1
    36    34    35   ar
    37    17    18   ar
    38    18    19   ar
    39    19    21    1
    40    21    22    1
    41    21    23    1
    42    19    20   ar
    43    20    15   ar
    44    12     2   ar
    45    35    30   ar
    46    10     4   ar
    47    28    29    1
@<TRIPOS>MOLECULE
*****
 44 47 0 0 0
SMALL
GASTEIGER

@<TRIPOS>ATOM
      1 C         141.9783  141.0341  162.4778 C.3     1  UNL1        0.0778
      2 C         142.1977  141.4139  163.9123 C.ar    1  UNL1        0.0373
      3 C         141.1627  141.0764  164.9442 C.ar    1  UNL1        0.0023
      4 C         141.3820  141.4563  166.3786 C.ar    1  UNL1        0.0181
      5 C         140.3470  141.1187  167.4106 C.ar    1  UNL1        0.0082
      6 C         140.5664  141.4986  168.8450 C.ar    1  UNL1        0.0347
      7 BR        139.5314  141.1611  169.8770 Br      1  UNL1       -0.0490
      8 C         141.8207  142.2160  169.2475 C.ar    1  UNL1        0.0082
      9 C         142.8557  142.5535  168.2156 C.ar    1  UNL1        0.0197
     10 C         142.6364  142.1736  166.7812 C.ar    1  UNL1        0.0844
     11 N         143.6714  142.5112  165.7493 N.ar    1  UNL1       -0.2119
     12 C         143.4520  142.1313  164.3148 C.ar    1  UNL1        0.2211
     13 O         144.4870  142.4688  163.2829 O.3     1  UNL1       -0.4563
     14 C         145.7650  141.6861  163.2185 C.3     1  UNL1        0.2542
     15 C         143.1056  142.9288  159.1780 C.ar    1  UNL1        0.1078
     16 C         143.0134  141.8862  160.2525 C.ar    1  UNL1        0.0217
     17 C         142.0705  142.0766  161.4034 C.ar    1  UNL1       -0.0109
     18 C         141.2197  143.3096  161.4798 C.ar    1  UNL1        0.0305
     19 C         141.3118  144.3522  160.4053 C.ar    1  UNL1        0.1320
     20 N         142.2548  144.1618  159.2544 N.ar    1  UNL1       -0.2245
     21 N         140.4611  145.5852  160.4818 N.pl3   1  UNL1       -0.2897
     22 C         140.0729  146.3076  159.2259 C.3     1  UNL1        0.1136
     23 C         139.9984  146.0958  161.8142 C.3     1  UNL1        0.1136
     24 S         144.0485  142.7383  158.0271 S.3     1  UNL1       -0.0949
     25 C         146.4713  142.4644  157.1298 C.3     1  UNL1        0.0130
     26 C         145.5147  142.5502  158.2820 C.3     1  UNL1        0.0637
     27 C         141.6668  139.6116  162.1179 C.3     1  UNL1        0.1161
     28 O         143.0280  139.1940  162.5899 O.3     1  UNL1       -0.3820
     29 H         143.2039  138.2837  162.3049 H       1  UNL1        0.2107
     30 C         140.3056  140.0291  161.6459 C.ar    1  UNL1        0.0117
     31 C         139.3414  140.6632  162.6041 C.ar    1  UNL1        0.0559
     32 C         137.9802  141.0807  162.1321 C.ar    1  UNL1        0.2272
     33 N         137.5832  140.8642  160.7019 N.ar    1  UNL1       -0.1767
     34 C         138.5475  140.2302  159.7437 C.ar    1  UNL1        0.2272
     35 C         139.9087  139.8126  160.2157 C.ar    1  UNL1        0.0559
     36 O         137.0159  141.7148  163.0903 O.3     1  UNL1       -0.4561
     37 C         137.5280  142.5374  164.2353 C.3     1  UNL1        0.2542
     38 O         138.1506  140.0136  158.3134 O.3     1  UNL1       -0.4561
     39 C         139.1786  139.5936  157.3051 C.3     1  UNL1        0.2542
     40 C         141.3553  138.1891  161.7580 C.3     1  UNL1        0.0491
     41 C         141.3050  137.1386  162.8276 C.3     1  UNL1        0.0750
     42 N         140.9737  137.5213  164.2396 N.3     1  UNL1       -0.2702
     43 C         139.5418  137.6807  164.6571 C.3     1  UNL1        0.0897
     44 C         142.0742  137.7444  165.2342 C.3     1  UNL1        0.0897
@<TRIPOS>BOND
     1    25    26    1
     2    26    24    1
     3    24    15    1
     4    15    16   ar
     5    16    17   ar
     6     1    17    1
     7     1     2    1
     8     2     3   ar
     9     3     4   ar
    10     4     5   ar
    11     5     6   ar
    12     6     7    1
    13     6     8   ar
    14     8     9   ar
    15     9    10   ar
    16    10    11   ar
    17    11    12   ar
    18    12    13    1
    19    13    14    1
    20     1    27    1
    21    27    28    1
    22    27    40    1
    23    40    41    1
    24    41    42    1
    25    42    43    1
    26    42    44    1
    27    27    30    1
    28    30    31   ar
    29    31    32   ar
    30    32    36    1
    31    36    37    1
    32    32    33   ar
    33    33    34   ar
    34    34    38    1
    35    38    39    1
    36    34    35   ar
    37    17    18   ar
    38    18    19   ar
    39    19    21    1
    40    21    22    1
    41    21    23    1
    42    19    20   ar
    43    20    15   ar
    44    12     2   ar
    45    35    30   ar
    46    10     4   ar
    47    28    29    1
@<TRIPOS>MOLECULE
*****
 44 47 0 0 0
SMALL
GASTEIGER

@<TRIPOS>ATOM
      1 C         141.3559  140.9287  160.1984 C.3     1  UNL1        0.0778
      2 C         142.2891  140.7044  159.0456 C.ar    1  UNL1        0.0373
      3 C         142.5939  141.8266  158.0981 C.ar    1  UNL1        0.0023
      4 C         143.5271  141.6024  156.9454 C.ar    1  UNL1        0.0181
      5 C         143.8318  142.7246  155.9979 C.ar    1  UNL1        0.0082
      6 C         144.7650  142.5004  154.8451 C.ar    1  UNL1        0.0347
      7 BR        145.0698  143.6226  153.8976 Br      1  UNL1       -0.0490
      8 C         145.3935  141.1539  154.6398 C.ar    1  UNL1        0.0082
      9 C         145.0887  140.0317  155.5873 C.ar    1  UNL1        0.0197
     10 C         144.1555  140.2559  156.7401 C.ar    1  UNL1        0.0844
     11 N         143.8508  139.1337  157.6876 N.ar    1  UNL1       -0.2119
     12 C         142.9176  139.3580  158.8404 C.ar    1  UNL1        0.2211
     13 O         142.6128  138.2358  159.7879 O.3     1  UNL1       -0.4563
     14 C         143.6194  137.8362  160.8257 C.3     1  UNL1        0.2542
     15 C         143.3764  142.5558  163.2017 C.ar    1  UNL1        0.1078
     16 C         142.8263  142.3209  161.8262 C.ar    1  UNL1        0.0217
     17 C         141.9060  141.1635  161.5740 C.ar    1  UNL1       -0.0109
     18 C         141.5358  140.2410  162.6973 C.ar    1  UNL1        0.0305
     19 C         142.0859  140.4759  164.0729 C.ar    1  UNL1        0.1320
     20 N         143.0062  141.6332  164.3252 N.ar    1  UNL1       -0.2245
     21 N         141.7158  139.5534  165.1963 N.pl3   1  UNL1       -0.2897
     22 C         142.4421  138.2524  165.3687 C.3     1  UNL1        0.1136
     23 C         140.6192  139.9319  166.1472 C.3     1  UNL1        0.1136
     24 S         144.2966  143.7131  163.4539 S.3     1  UNL1       -0.0949
     25 C         142.2827  145.3243  163.7673 C.3     1  UNL1        0.0130
     26 C         143.7421  145.0212  163.9351 C.3     1  UNL1        0.0637
     27 C         139.8726  140.9180  159.9756 C.3     1  UNL1        0.1161
     28 O         139.9200  139.4390  159.7304 O.3     1  UNL1       -0.3820
     29 H         139.0723  139.1450  159.3619 H       1  UNL1        0.2107
     30 C         139.8252  142.3971  160.2207 C.ar    1  UNL1        0.0117
     31 C         139.3461  142.9235  161.5411 C.ar    1  UNL1        0.0559
     32 C         139.2987  144.4026  161.7863 C.ar    1  UNL1        0.2272
     33 N         139.7303  145.3552  160.7111 N.ar    1  UNL1       -0.1767
     34 C         140.2093  144.8288  159.3907 C.ar    1  UNL1        0.2272
     35 C         140.2568  143.3498  159.1455 C.ar    1  UNL1        0.0559
     36 O         138.8196  144.9289  163.1067 O.3     1  UNL1       -0.4561
     37 C         137.9276  144.0874  163.9705 C.3     1  UNL1        0.2542
     38 O         140.6410  145.7815  158.3154 O.3     1  UNL1       -0.4561
     39 C         141.9744  145.6079  157.6506 C.3     1  UNL1        0.2542
     40 C         138.3893  140.9074  159.7527 C.3     1  UNL1        0.0491
     41 C         137.5396  139.8604  160.4100 C.3     1  UNL1        0.0750
     42 N         137.8180  139.4483  161.8251 N.3     1  UNL1       -0.2702
     43 C         138.2199  138.0357  162.1297 C.3     1  UNL1        0.0897
     44 C         137.6945  140.4490  162.9358 C.3     1  UNL1        0.0897
@<TRIPOS>BOND
     1    25    26    1
     2    26    24    1
     3    24    15    1
     4    15    16   ar
     5    16    17   ar
     6     1    17    1
     7     1     2    1
     8     2     3   ar
     9     3     4   ar
    10     4     5   ar
    11     5     6   ar
    12     6     7    1
    13     6     8   ar
    14     8     9   ar
    15     9    10   ar
    16    10    11   ar
    17    11    12   ar
    18    12    13    1
    19    13    14    1
    20     1    27    1
    21    27    28    1
    22    27    40    1
    23    40    41    1
    24    41    42    1
    25    42    43    1
    26    42    44    1
    27    27    30    1
    28    30    31   ar
    29    31    32   ar
    30    32    36    1
    31    36    37    1
    32    32    33   ar
    33    33    34   ar
    34    34    38    1
    35    38    39    1
    36    34    35   ar
    37    17    18   ar
    38    18    19   ar
    39    19    21    1
    40    21    22    1
    41    21    23    1
    42    19    20   ar
    43    20    15   ar
    44    12     2   ar
    45    35    30   ar
    46    10     4   ar
    47    28    29    1
