@<TRIPOS>MOLECULE
*****
 32 35 0 0 0
SMALL
GASTEIGER

@<TRIPOS>ATOM
      1 C         142.0391  138.0334  158.7482 C.ar    1  UNL1       -0.0014
      2 C         142.6772  137.6899  160.0615 C.ar    1  UNL1       -0.0012
      3 C         141.9371  137.9377  161.3424 C.ar    1  UNL1        0.0177
      4 C         140.5590  138.5290  161.3100 C.ar    1  UNL1        0.0883
      5 C         139.9209  138.8725  159.9967 C.ar    1  UNL1        0.1519
      6 C         140.6610  138.6247  158.7158 C.ar    1  UNL1        0.0355
      7 O         138.5427  139.4638  159.9643 O.3     1  UNL1       -0.4724
      8 C         137.8027  139.7116  161.2452 C.3     1  UNL1        0.2272
      9 C         138.4407  139.3681  162.5586 C.3     1  UNL1        0.1458
     10 N         139.8189  138.7768  162.5910 N.am    1  UNL1       -0.2486
     11 C         140.4569  138.4333  163.9043 C.2     1  UNL1        0.2529
     12 O         141.8351  137.8420  163.9367 O.2     1  UNL1       -0.2696
     13 C         139.7168  138.6811  165.1854 C.ar    1  UNL1        0.0547
     14 C         138.5074  137.8609  165.5235 C.ar    1  UNL1        0.0046
     15 C         137.7674  138.1088  166.8045 C.ar    1  UNL1        0.0010
     16 C         138.2368  139.1768  167.7473 C.ar    1  UNL1        0.0114
     17 C         139.4462  139.9971  167.4091 C.ar    1  UNL1        0.0578
     18 CL        139.9157  141.0651  168.3519 Cl      1  UNL1       -0.0822
     19 C         140.1863  139.7492  166.1282 C.ar    1  UNL1        0.0159
     20 C         142.9303  138.8892  156.4627 C.3     1  UNL1        0.0262
     21 C         142.7792  137.7855  157.4672 C.3     1  UNL1        0.0945
     22 N         143.3682  136.4340  157.1907 N.am    1  UNL1       -0.2987
     23 C         142.5881  135.4225  156.4044 C.2     1  UNL1        0.2460
     24 O         141.2190  135.7625  155.8946 O.2     1  UNL1       -0.2701
     25 H         144.2668  136.2108  157.5253 H       1  UNL1        0.1500
     26 C         143.1771  134.0709  156.1280 C.ar    1  UNL1        0.0534
     27 C         144.1504  133.4649  157.0952 C.ar    1  UNL1        0.0054
     28 C         144.7394  132.1133  156.8187 C.ar    1  UNL1        0.0115
     29 C         144.3551  131.3679  155.5751 C.ar    1  UNL1        0.0577
     30 CL        144.9441  130.0163  155.2986 Cl      1  UNL1       -0.0822
     31 C         143.3819  131.9740  154.6079 C.ar    1  UNL1        0.0115
     32 C         142.7929  133.3255  154.8844 C.ar    1  UNL1        0.0054
@<TRIPOS>BOND
     1    21    20    1
     2    21    22    1
     3    22    23   am
     4    23    24    2
     5    23    26    1
     6    26    27   ar
     7    27    28   ar
     8    28    29   ar
     9    29    30    1
    10    29    31   ar
    11    31    32   ar
    12    21     1    1
    13     1     2   ar
    14     2     3   ar
    15     3     4   ar
    16     4     5   ar
    17     5     6   ar
    18     5     7    1
    19     7     8    1
    20     8     9    1
    21     9    10    1
    22    10    11   am
    23    11    12    2
    24    11    13    1
    25    13    14   ar
    26    14    15   ar
    27    15    16   ar
    28    16    17   ar
    29    17    18    1
    30    17    19   ar
    31    32    26   ar
    32     6     1   ar
    33    19    13   ar
    34    10     4    1
    35    22    25    1
@<TRIPOS>MOLECULE
*****
 32 35 0 0 0
SMALL
GASTEIGER

@<TRIPOS>ATOM
      1 C         142.3287  139.5736  159.8621 C.ar    1  UNL1       -0.0014
      2 C         141.2867  139.3052  160.9072 C.ar    1  UNL1       -0.0012
      3 C         141.5683  139.6227  162.3459 C.ar    1  UNL1        0.0177
      4 C         142.8918  140.2087  162.7395 C.ar    1  UNL1        0.0883
      5 C         143.9338  140.4771  161.6944 C.ar    1  UNL1        0.1519
      6 C         143.6522  140.1596  160.2557 C.ar    1  UNL1        0.0355
      7 O         145.2573  141.0631  162.0880 O.3     1  UNL1       -0.4724
      8 C         145.5389  141.3806  163.5267 C.3     1  UNL1        0.2272
      9 C         144.4969  141.1122  164.5719 C.3     1  UNL1        0.1458
     10 N         143.1734  140.5262  164.1783 N.am    1  UNL1       -0.2486
     11 C         142.1314  140.2578  165.2233 C.2     1  UNL1        0.2529
     12 O         140.8079  139.6718  164.8297 O.2     1  UNL1       -0.2696
     13 C         142.4129  140.5753  166.6621 C.ar    1  UNL1        0.0547
     14 C         142.6957  141.9888  167.0768 C.ar    1  UNL1        0.0046
     15 C         142.9773  142.3062  168.5155 C.ar    1  UNL1        0.0010
     16 C         142.9760  141.2102  169.5395 C.ar    1  UNL1        0.0114
     17 C         142.6932  139.7967  169.1249 C.ar    1  UNL1        0.0578
     18 CL        142.6919  138.7007  170.1489 Cl      1  UNL1       -0.0822
     19 C         142.4116  139.4792  167.6862 C.ar    1  UNL1        0.0159
     20 C         142.0016  140.3584  157.4071 C.3     1  UNL1        0.0262
     21 C         142.0472  139.2561  158.4233 C.3     1  UNL1        0.0945
     22 N         141.8112  137.8363  158.0010 N.am    1  UNL1       -0.2987
     23 C         142.7810  137.1566  157.0803 C.2     1  UNL1        0.2460
     24 O         143.9868  137.8968  156.5820 O.2     1  UNL1       -0.2701
     25 H         141.0198  137.3505  158.3280 H       1  UNL1        0.1500
     26 C         142.5450  135.7368  156.6579 C.ar    1  UNL1        0.0534
     27 C         143.3169  134.6242  157.3032 C.ar    1  UNL1        0.0054
     28 C         143.0809  133.2044  156.8809 C.ar    1  UNL1        0.0115
     29 C         142.0730  132.8972  155.8131 C.ar    1  UNL1        0.0577
     30 CL        141.8371  131.4773  155.3907 Cl      1  UNL1       -0.0822
     31 C         141.3012  134.0098  155.1679 C.ar    1  UNL1        0.0115
     32 C         141.5372  135.4296  155.5903 C.ar    1  UNL1        0.0054
@<TRIPOS>BOND
     1    21    20    1
     2    21    22    1
     3    22    23   am
     4    23    24    2
     5    23    26    1
     6    26    27   ar
     7    27    28   ar
     8    28    29   ar
     9    29    30    1
    10    29    31   ar
    11    31    32   ar
    12    21     1    1
    13     1     2   ar
    14     2     3   ar
    15     3     4   ar
    16     4     5   ar
    17     5     6   ar
    18     5     7    1
    19     7     8    1
    20     8     9    1
    21     9    10    1
    22    10    11   am
    23    11    12    2
    24    11    13    1
    25    13    14   ar
    26    14    15   ar
    27    15    16   ar
    28    16    17   ar
    29    17    18    1
    30    17    19   ar
    31    32    26   ar
    32     6     1   ar
    33    19    13   ar
    34    10     4    1
    35    22    25    1
@<TRIPOS>MOLECULE
*****
 32 35 0 0 0
SMALL
GASTEIGER

@<TRIPOS>ATOM
      1 C         141.1556  145.2388  157.3487 C.ar    1  UNL1       -0.0014
      2 C         142.2224  144.2636  157.7497 C.ar    1  UNL1       -0.0012
      3 C         142.4103  143.9100  159.1952 C.ar    1  UNL1        0.0177
      4 C         141.5314  144.5316  160.2398 C.ar    1  UNL1        0.0883
      5 C         140.4646  145.5068  159.8389 C.ar    1  UNL1        0.1519
      6 C         140.2767  145.8604  158.3933 C.ar    1  UNL1        0.0355
      7 O         139.5857  146.1285  160.8834 O.3     1  UNL1       -0.4724
      8 C         139.7736  145.7748  162.3290 C.3     1  UNL1        0.2272
      9 C         140.8405  144.7995  162.7300 C.3     1  UNL1        0.1458
     10 N         141.7193  144.1779  161.6854 N.am    1  UNL1       -0.2486
     11 C         142.7861  143.2027  162.0863 C.2     1  UNL1        0.2529
     12 O         143.6650  142.5810  161.0418 O.2     1  UNL1       -0.2696
     13 C         142.9741  142.8490  163.5319 C.ar    1  UNL1        0.0547
     14 C         143.9582  143.6114  164.3688 C.ar    1  UNL1        0.0046
     15 C         144.1461  143.2577  165.8143 C.ar    1  UNL1        0.0010
     16 C         143.3499  142.1416  166.4230 C.ar    1  UNL1        0.0114
     17 C         142.3659  141.3792  165.5861 C.ar    1  UNL1        0.0578
     18 CL        141.5697  140.2632  166.1948 Cl      1  UNL1       -0.0822
     19 C         142.1779  141.7329  164.1406 C.ar    1  UNL1        0.0159
     20 C         140.9426  144.5114  154.8637 C.3     1  UNL1        0.0262
     21 C         140.9676  145.5925  155.9032 C.3     1  UNL1        0.0945
     22 N         140.8046  147.0273  155.4971 N.am    1  UNL1       -0.2987
     23 C         139.4378  147.5754  155.2121 C.2     1  UNL1        0.2460
     24 O         138.2339  146.6888  155.3330 O.2     1  UNL1       -0.2701
     25 H         141.5948  147.6092  155.4178 H       1  UNL1        0.1500
     26 C         139.2749  149.0102  154.8060 C.ar    1  UNL1        0.0534
     27 C         138.6380  149.9885  155.7481 C.ar    1  UNL1        0.0054
     28 C         138.4750  151.4233  155.3421 C.ar    1  UNL1        0.0115
     29 C         138.9489  151.8798  153.9940 C.ar    1  UNL1        0.0577
     30 CL        138.7859  153.3146  153.5880 Cl      1  UNL1       -0.0822
     31 C         139.5857  150.9015  153.0521 C.ar    1  UNL1        0.0115
     32 C         139.7487  149.4667  153.4581 C.ar    1  UNL1        0.0054
@<TRIPOS>BOND
     1    21    20    1
     2    21    22    1
     3    22    23   am
     4    23    24    2
     5    23    26    1
     6    26    27   ar
     7    27    28   ar
     8    28    29   ar
     9    29    30    1
    10    29    31   ar
    11    31    32   ar
    12    21     1    1
    13     1     2   ar
    14     2     3   ar
    15     3     4   ar
    16     4     5   ar
    17     5     6   ar
    18     5     7    1
    19     7     8    1
    20     8     9    1
    21     9    10    1
    22    10    11   am
    23    11    12    2
    24    11    13    1
    25    13    14   ar
    26    14    15   ar
    27    15    16   ar
    28    16    17   ar
    29    17    18    1
    30    17    19   ar
    31    32    26   ar
    32     6     1   ar
    33    19    13   ar
    34    10     4    1
    35    22    25    1
@<TRIPOS>MOLECULE
*****
 32 35 0 0 0
SMALL
GASTEIGER

@<TRIPOS>ATOM
      1 C         140.7850  144.1733  158.6664 C.ar    1  UNL1       -0.0014
      2 C         141.1015  142.7460  159.0022 C.ar    1  UNL1       -0.0012
      3 C         140.7582  142.2003  160.3565 C.ar    1  UNL1        0.0177
      4 C         140.0984  143.0818  161.3751 C.ar    1  UNL1        0.0883
      5 C         139.7818  144.5090  161.0394 C.ar    1  UNL1        0.1519
      6 C         140.1251  145.0548  159.6851 C.ar    1  UNL1        0.0355
      7 O         139.1220  145.3905  162.0580 O.3     1  UNL1       -0.4724
      8 C         138.7787  144.8448  163.4123 C.3     1  UNL1        0.2272
      9 C         139.0952  143.4175  163.7481 C.3     1  UNL1        0.1458
     10 N         139.7550  142.5360  162.7295 N.am    1  UNL1       -0.2486
     11 C         140.0716  141.1087  163.0652 C.2     1  UNL1        0.2529
     12 O         140.7314  140.2272  162.0466 O.2     1  UNL1       -0.2696
     13 C         139.7282  140.5629  164.4196 C.ar    1  UNL1        0.0547
     14 C         138.4138  139.8747  164.6397 C.ar    1  UNL1        0.0046
     15 C         138.0706  139.3289  165.9940 C.ar    1  UNL1        0.0010
     16 C         139.0417  139.4714  167.1283 C.ar    1  UNL1        0.0114
     17 C         140.3562  140.1597  166.9082 C.ar    1  UNL1        0.0578
     18 CL        141.3274  140.3022  168.0424 Cl      1  UNL1       -0.0822
     19 C         140.6994  140.7054  165.5538 C.ar    1  UNL1        0.0159
     20 C         141.7698  143.8321  156.2866 C.3     1  UNL1        0.0262
     21 C         141.1283  144.7191  157.3120 C.3     1  UNL1        0.0945
     22 N         140.8300  146.1519  156.9832 N.am    1  UNL1       -0.2987
     23 C         139.5878  146.5032  156.2195 C.2     1  UNL1        0.2460
     24 O         138.6436  145.4217  155.7846 O.2     1  UNL1       -0.2701
     25 H         141.4497  146.8617  157.2687 H       1  UNL1        0.1500
     26 C         139.2895  147.9360  155.8907 C.ar    1  UNL1        0.0534
     27 C         138.5708  148.7997  156.8846 C.ar    1  UNL1        0.0054
     28 C         138.2725  150.2325  156.5557 C.ar    1  UNL1        0.0115
     29 C         138.6930  150.8016  155.2331 C.ar    1  UNL1        0.0577
     30 CL        138.3948  152.2344  154.9043 Cl      1  UNL1       -0.0822
     31 C         139.4117  149.9380  154.2393 C.ar    1  UNL1        0.0115
     32 C         139.7100  148.5052  154.5682 C.ar    1  UNL1        0.0054
@<TRIPOS>BOND
     1    21    20    1
     2    21    22    1
     3    22    23   am
     4    23    24    2
     5    23    26    1
     6    26    27   ar
     7    27    28   ar
     8    28    29   ar
     9    29    30    1
    10    29    31   ar
    11    31    32   ar
    12    21     1    1
    13     1     2   ar
    14     2     3   ar
    15     3     4   ar
    16     4     5   ar
    17     5     6   ar
    18     5     7    1
    19     7     8    1
    20     8     9    1
    21     9    10    1
    22    10    11   am
    23    11    12    2
    24    11    13    1
    25    13    14   ar
    26    14    15   ar
    27    15    16   ar
    28    16    17   ar
    29    17    18    1
    30    17    19   ar
    31    32    26   ar
    32     6     1   ar
    33    19    13   ar
    34    10     4    1
    35    22    25    1
@<TRIPOS>MOLECULE
*****
 32 35 0 0 0
SMALL
GASTEIGER

@<TRIPOS>ATOM
      1 C         137.6417  142.8224  156.3313 C.ar    1  UNL1       -0.0014
      2 C         137.6213  142.1501  157.6721 C.ar    1  UNL1       -0.0012
      3 C         138.6036  142.5570  158.7301 C.ar    1  UNL1        0.0177
      4 C         139.6064  143.6361  158.4473 C.ar    1  UNL1        0.0883
      5 C         139.6269  144.3083  157.1066 C.ar    1  UNL1        0.1519
      6 C         138.6445  143.9014  156.0486 C.ar    1  UNL1        0.0355
      7 O         140.6297  145.3874  156.8239 O.3     1  UNL1       -0.4724
      8 C         141.6121  145.7942  157.8818 C.3     1  UNL1        0.2272
      9 C         141.5916  145.1220  159.2227 C.3     1  UNL1        0.1458
     10 N         140.5888  144.0429  159.5054 N.am    1  UNL1       -0.2486
     11 C         140.5683  143.3707  160.8462 C.2     1  UNL1        0.2529
     12 O         139.5655  142.2916  161.1289 O.2     1  UNL1       -0.2696
     13 C         141.5507  143.7775  161.9043 C.ar    1  UNL1        0.0547
     14 C         141.2927  144.9973  162.7381 C.ar    1  UNL1        0.0046
     15 C         142.2750  145.4041  163.7961 C.ar    1  UNL1        0.0010
     16 C         143.5155  144.5911  164.0203 C.ar    1  UNL1        0.0114
     17 C         143.7735  143.3712  163.1864 C.ar    1  UNL1        0.0578
     18 CL        145.0140  142.5582  163.4106 Cl      1  UNL1       -0.0822
     19 C         142.7912  142.9645  162.1284 C.ar    1  UNL1        0.0159
     20 C         137.0973  142.3143  153.8422 C.3     1  UNL1        0.0262
     21 C         136.6593  142.4155  155.2733 C.3     1  UNL1        0.0945
     22 N         135.2390  142.1099  155.6463 N.am    1  UNL1       -0.2987
     23 C         134.8064  140.6883  155.8505 C.2     1  UNL1        0.2460
     24 O         135.7943  139.5721  155.6816 O.2     1  UNL1       -0.2701
     25 H         134.5906  142.8424  155.7571 H       1  UNL1        0.1500
     26 C         133.3860  140.3826  156.2235 C.ar    1  UNL1        0.0534
     27 C         133.0882  139.2999  157.2180 C.ar    1  UNL1        0.0054
     28 C         131.6678  138.9943  157.5911 C.ar    1  UNL1        0.0115
     29 C         130.5453  139.7714  156.9695 C.ar    1  UNL1        0.0577
     30 CL        129.1249  139.4658  157.3426 Cl      1  UNL1       -0.0822
     31 C         130.8432  140.8541  155.9750 C.ar    1  UNL1        0.0115
     32 C         132.2636  141.1597  155.6020 C.ar    1  UNL1        0.0054
@<TRIPOS>BOND
     1    21    20    1
     2    21    22    1
     3    22    23   am
     4    23    24    2
     5    23    26    1
     6    26    27   ar
     7    27    28   ar
     8    28    29   ar
     9    29    30    1
    10    29    31   ar
    11    31    32   ar
    12    21     1    1
    13     1     2   ar
    14     2     3   ar
    15     3     4   ar
    16     4     5   ar
    17     5     6   ar
    18     5     7    1
    19     7     8    1
    20     8     9    1
    21     9    10    1
    22    10    11   am
    23    11    12    2
    24    11    13    1
    25    13    14   ar
    26    14    15   ar
    27    15    16   ar
    28    16    17   ar
    29    17    18    1
    30    17    19   ar
    31    32    26   ar
    32     6     1   ar
    33    19    13   ar
    34    10     4    1
    35    22    25    1
@<TRIPOS>MOLECULE
*****
 32 35 0 0 0
SMALL
GASTEIGER

@<TRIPOS>ATOM
      1 C         141.7883  138.0921  157.9216 C.ar    1  UNL1       -0.0014
      2 C         142.5274  137.8264  159.1995 C.ar    1  UNL1       -0.0012
      3 C         141.8626  138.0872  160.5185 C.ar    1  UNL1        0.0177
      4 C         140.4586  138.6137  160.5597 C.ar    1  UNL1        0.0883
      5 C         139.7195  138.8794  159.2818 C.ar    1  UNL1        0.1519
      6 C         140.3843  138.6186  157.9627 C.ar    1  UNL1        0.0355
      7 O         138.3155  139.4059  159.3229 O.3     1  UNL1       -0.4724
      8 C         137.6507  139.6666  160.6420 C.3     1  UNL1        0.2272
      9 C         138.3898  139.4009  161.9200 C.3     1  UNL1        0.1458
     10 N         139.7938  138.8744  161.8788 N.am    1  UNL1       -0.2486
     11 C         140.5329  138.6087  163.1567 C.2     1  UNL1        0.2529
     12 O         141.9368  138.0822  163.1156 O.2     1  UNL1       -0.2696
     13 C         139.8680  138.8695  164.4759 C.ar    1  UNL1        0.0547
     14 C         140.1433  140.1453  165.2152 C.ar    1  UNL1        0.0046
     15 C         139.4785  140.4060  166.5343 C.ar    1  UNL1        0.0010
     16 C         138.5384  139.3910  167.1140 C.ar    1  UNL1        0.0114
     17 C         138.2631  138.1153  166.3746 C.ar    1  UNL1        0.0578
     18 CL        137.3231  137.1003  166.9543 Cl      1  UNL1       -0.0822
     19 C         138.9280  137.8545  165.0555 C.ar    1  UNL1        0.0159
     20 C         143.6143  138.6756  156.1679 C.3     1  UNL1        0.0262
     21 C         142.4531  137.8313  156.6024 C.3     1  UNL1        0.0945
     22 N         141.9567  136.7262  155.7179 N.am    1  UNL1       -0.2987
     23 C         142.3835  135.3113  155.9743 C.2     1  UNL1        0.2460
     24 O         143.3066  135.0013  157.1153 O.2     1  UNL1       -0.2701
     25 H         141.3509  136.9296  154.9691 H       1  UNL1        0.1500
     26 C         141.8871  134.2062  155.0898 C.ar    1  UNL1        0.0534
     27 C         141.6023  134.4751  153.6418 C.ar    1  UNL1        0.0054
     28 C         141.1059  133.3700  152.7573 C.ar    1  UNL1        0.0115
     29 C         140.8943  131.9960  153.3207 C.ar    1  UNL1        0.0577
     30 CL        140.3979  130.8909  152.4362 Cl      1  UNL1       -0.0822
     31 C         141.1791  131.7272  154.7687 C.ar    1  UNL1        0.0115
     32 C         141.6755  132.8322  155.6532 C.ar    1  UNL1        0.0054
@<TRIPOS>BOND
     1    21    20    1
     2    21    22    1
     3    22    23   am
     4    23    24    2
     5    23    26    1
     6    26    27   ar
     7    27    28   ar
     8    28    29   ar
     9    29    30    1
    10    29    31   ar
    11    31    32   ar
    12    21     1    1
    13     1     2   ar
    14     2     3   ar
    15     3     4   ar
    16     4     5   ar
    17     5     6   ar
    18     5     7    1
    19     7     8    1
    20     8     9    1
    21     9    10    1
    22    10    11   am
    23    11    12    2
    24    11    13    1
    25    13    14   ar
    26    14    15   ar
    27    15    16   ar
    28    16    17   ar
    29    17    18    1
    30    17    19   ar
    31    32    26   ar
    32     6     1   ar
    33    19    13   ar
    34    10     4    1
    35    22    25    1
@<TRIPOS>MOLECULE
*****
 32 35 0 0 0
SMALL
GASTEIGER

@<TRIPOS>ATOM
      1 C         143.7338  142.8367  162.8822 C.ar    1  UNL1       -0.0014
      2 C         143.9685  142.4643  161.4483 C.ar    1  UNL1       -0.0012
      3 C         143.1315  143.0805  160.3668 C.ar    1  UNL1        0.0177
      4 C         142.0598  144.0691  160.7192 C.ar    1  UNL1        0.0883
      5 C         141.8252  144.4415  162.1531 C.ar    1  UNL1        0.1519
      6 C         142.6622  143.8253  163.2346 C.ar    1  UNL1        0.0355
      7 O         140.7535  145.4301  162.5056 O.3     1  UNL1       -0.4724
      8 C         139.9165  146.0463  161.4241 C.3     1  UNL1        0.2272
      9 C         140.1511  145.6739  159.9900 C.3     1  UNL1        0.1458
     10 N         141.2228  144.6853  159.6376 N.am    1  UNL1       -0.2486
     11 C         141.4575  144.3128  158.2037 C.2     1  UNL1        0.2529
     12 O         142.5291  143.3242  157.8513 O.2     1  UNL1       -0.2696
     13 C         140.6204  144.9290  157.1221 C.ar    1  UNL1        0.0547
     14 C         141.0616  146.2042  156.4670 C.ar    1  UNL1        0.0046
     15 C         140.2246  146.8203  155.3855 C.ar    1  UNL1        0.0010
     16 C         138.9464  146.1613  154.9590 C.ar    1  UNL1        0.0114
     17 C         138.5052  144.8861  155.6141 C.ar    1  UNL1        0.0578
     18 CL        137.2270  144.2270  155.1877 Cl      1  UNL1       -0.0822
     19 C         139.3422  144.2700  156.6957 C.ar    1  UNL1        0.0159
     20 C         145.9087  141.6291  163.6317 C.3     1  UNL1        0.0262
     21 C         144.5709  142.2205  163.9638 C.3     1  UNL1        0.0945
     22 N         144.0699  142.1957  165.3775 N.am    1  UNL1       -0.2987
     23 C         143.1054  141.1327  165.8129 C.2     1  UNL1        0.2460
     24 O         142.6417  140.0944  164.8346 O.2     1  UNL1       -0.2701
     25 H         144.3743  142.8772  166.0196 H       1  UNL1        0.1500
     26 C         142.6045  141.1080  167.2266 C.ar    1  UNL1        0.0534
     27 C         142.9362  142.2347  168.1596 C.ar    1  UNL1        0.0054
     28 C         142.4353  142.2099  169.5733 C.ar    1  UNL1        0.0115
     29 C         141.6026  141.0585  170.0539 C.ar    1  UNL1        0.0577
     30 CL        141.1017  141.0337  171.4676 Cl      1  UNL1       -0.0822
     31 C         141.2709  139.9319  169.1209 C.ar    1  UNL1        0.0115
     32 C         141.7719  139.9566  167.7072 C.ar    1  UNL1        0.0054
@<TRIPOS>BOND
     1    21    20    1
     2    21    22    1
     3    22    23   am
     4    23    24    2
     5    23    26    1
     6    26    27   ar
     7    27    28   ar
     8    28    29   ar
     9    29    30    1
    10    29    31   ar
    11    31    32   ar
    12    21     1    1
    13     1     2   ar
    14     2     3   ar
    15     3     4   ar
    16     4     5   ar
    17     5     6   ar
    18     5     7    1
    19     7     8    1
    20     8     9    1
    21     9    10    1
    22    10    11   am
    23    11    12    2
    24    11    13    1
    25    13    14   ar
    26    14    15   ar
    27    15    16   ar
    28    16    17   ar
    29    17    18    1
    30    17    19   ar
    31    32    26   ar
    32     6     1   ar
    33    19    13   ar
    34    10     4    1
    35    22    25    1
@<TRIPOS>MOLECULE
*****
 32 35 0 0 0
SMALL
GASTEIGER

@<TRIPOS>ATOM
      1 C         143.0365  139.8724  160.6627 C.ar    1  UNL1       -0.0014
      2 C         141.7932  140.6123  161.0584 C.ar    1  UNL1       -0.0012
      3 C         141.4294  140.7463  162.5074 C.ar    1  UNL1        0.0177
      4 C         142.3090  140.1406  163.5607 C.ar    1  UNL1        0.0883
      5 C         143.5523  139.4007  163.1649 C.ar    1  UNL1        0.1519
      6 C         143.9161  139.2666  161.7159 C.ar    1  UNL1        0.0355
      7 O         144.4319  138.7949  164.2182 O.3     1  UNL1       -0.4724
      8 C         144.0681  138.9290  165.6672 C.3     1  UNL1        0.2272
      9 C         142.8247  139.6689  166.0630 C.3     1  UNL1        0.1458
     10 N         141.9452  140.2747  165.0097 N.am    1  UNL1       -0.2486
     11 C         140.7018  141.0145  165.4055 C.2     1  UNL1        0.2529
     12 O         139.8222  141.6203  164.3522 O.2     1  UNL1       -0.2696
     13 C         140.3380  141.1486  166.8546 C.ar    1  UNL1        0.0547
     14 C         139.6264  140.0298  167.5558 C.ar    1  UNL1        0.0046
     15 C         139.2626  140.1640  169.0048 C.ar    1  UNL1        0.0010
     16 C         139.6104  141.4169  169.7525 C.ar    1  UNL1        0.0114
     17 C         140.3221  142.5357  169.0513 C.ar    1  UNL1        0.0578
     18 CL        140.6699  143.7887  169.7990 Cl      1  UNL1       -0.0822
     19 C         140.6859  142.4016  167.6023 C.ar    1  UNL1        0.0159
     20 C         143.9012  140.9300  158.4527 C.3     1  UNL1        0.0262
     21 C         143.4003  139.7383  159.2136 C.3     1  UNL1        0.0945
     22 N         143.2633  138.4125  158.5255 N.am    1  UNL1       -0.2987
     23 C         142.1603  138.1931  157.5330 C.2     1  UNL1        0.2460
     24 O         141.1942  139.2995  157.2285 O.2     1  UNL1       -0.2701
     25 H         143.8973  137.6863  158.7254 H       1  UNL1        0.1500
     26 C         142.0232  136.8672  156.8450 C.ar    1  UNL1        0.0534
     27 C         142.9333  135.7332  157.2138 C.ar    1  UNL1        0.0054
     28 C         142.7962  134.4074  156.5257 C.ar    1  UNL1        0.0115
     29 C         141.7491  134.2156  155.4688 C.ar    1  UNL1        0.0577
     30 CL        141.6121  132.8898  154.7808 Cl      1  UNL1       -0.0822
     31 C         140.8391  135.3496  155.1001 C.ar    1  UNL1        0.0115
     32 C         140.9762  136.6754  155.7882 C.ar    1  UNL1        0.0054
@<TRIPOS>BOND
     1    21    20    1
     2    21    22    1
     3    22    23   am
     4    23    24    2
     5    23    26    1
     6    26    27   ar
     7    27    28   ar
     8    28    29   ar
     9    29    30    1
    10    29    31   ar
    11    31    32   ar
    12    21     1    1
    13     1     2   ar
    14     2     3   ar
    15     3     4   ar
    16     4     5   ar
    17     5     6   ar
    18     5     7    1
    19     7     8    1
    20     8     9    1
    21     9    10    1
    22    10    11   am
    23    11    12    2
    24    11    13    1
    25    13    14   ar
    26    14    15   ar
    27    15    16   ar
    28    16    17   ar
    29    17    18    1
    30    17    19   ar
    31    32    26   ar
    32     6     1   ar
    33    19    13   ar
    34    10     4    1
    35    22    25    1
@<TRIPOS>MOLECULE
*****
 32 35 0 0 0
SMALL
GASTEIGER

@<TRIPOS>ATOM
      1 C         142.5836  138.7934  159.3399 C.ar    1  UNL1       -0.0014
      2 C         143.5011  139.6064  160.2043 C.ar    1  UNL1       -0.0012
      3 C         143.2252  139.7400  161.6727 C.ar    1  UNL1        0.0177
      4 C         142.0320  139.0606  162.2765 C.ar    1  UNL1        0.0883
      5 C         141.1146  138.2476  161.4120 C.ar    1  UNL1        0.1519
      6 C         141.3904  138.1141  159.9437 C.ar    1  UNL1        0.0355
      7 O         139.9213  137.5683  162.0159 O.3     1  UNL1       -0.4724
      8 C         139.6455  137.7019  163.4842 C.3     1  UNL1        0.2272
      9 C         140.5630  138.5148  164.3488 C.3     1  UNL1        0.1458
     10 N         141.7562  139.1942  163.7449 N.am    1  UNL1       -0.2486
     11 C         142.6737  140.0072  164.6094 C.2     1  UNL1        0.2529
     12 O         143.8669  140.6866  164.0056 O.2     1  UNL1       -0.2696
     13 C         142.3979  140.1408  166.0778 C.ar    1  UNL1        0.0547
     14 C         142.9322  139.1191  167.0373 C.ar    1  UNL1        0.0046
     15 C         142.6564  139.2528  168.5056 C.ar    1  UNL1        0.0010
     16 C         141.8463  140.4081  169.0145 C.ar    1  UNL1        0.0114
     17 C         141.3120  141.4298  168.0550 C.ar    1  UNL1        0.0578
     18 CL        140.5019  142.5852  168.5639 Cl      1  UNL1       -0.0822
     19 C         141.5878  141.2962  166.5867 C.ar    1  UNL1        0.0159
     20 C         142.7945  139.8668  156.9833 C.3     1  UNL1        0.0262
     21 C         142.8594  138.6598  157.8714 C.3     1  UNL1        0.0945
     22 N         143.2001  137.3192  157.2913 N.am    1  UNL1       -0.2987
     23 C         142.1287  136.4817  156.6582 C.2     1  UNL1        0.2460
     24 O         140.7166  136.9850  156.6052 O.2     1  UNL1       -0.2701
     25 H         144.1269  136.9889  157.3261 H       1  UNL1        0.1500
     26 C         142.4694  135.1411  156.0780 C.ar    1  UNL1        0.0534
     27 C         141.5792  134.5250  155.0397 C.ar    1  UNL1        0.0054
     28 C         141.9198  133.1844  154.4596 C.ar    1  UNL1        0.0115
     29 C         143.1508  132.4598  154.9177 C.ar    1  UNL1        0.0577
     30 CL        143.4914  131.1191  154.3376 Cl      1  UNL1       -0.0822
     31 C         144.0409  133.0758  155.9560 C.ar    1  UNL1        0.0115
     32 C         143.7003  134.4165  156.5361 C.ar    1  UNL1        0.0054
@<TRIPOS>BOND
     1    21    20    1
     2    21    22    1
     3    22    23   am
     4    23    24    2
     5    23    26    1
     6    26    27   ar
     7    27    28   ar
     8    28    29   ar
     9    29    30    1
    10    29    31   ar
    11    31    32   ar
    12    21     1    1
    13     1     2   ar
    14     2     3   ar
    15     3     4   ar
    16     4     5   ar
    17     5     6   ar
    18     5     7    1
    19     7     8    1
    20     8     9    1
    21     9    10    1
    22    10    11   am
    23    11    12    2
    24    11    13    1
    25    13    14   ar
    26    14    15   ar
    27    15    16   ar
    28    16    17   ar
    29    17    18    1
    30    17    19   ar
    31    32    26   ar
    32     6     1   ar
    33    19    13   ar
    34    10     4    1
    35    22    25    1
