@<TRIPOS>MOLECULE
*****
 30 32 0 0 0
SMALL
GASTEIGER

@<TRIPOS>ATOM
      1 C         140.2728  142.0081  162.6191 C.ar    1  UNL1        0.2445
      2 N         138.9911  142.5368  162.0464 N.ar    1  UNL1       -0.2078
      3 C         138.8269  144.0086  161.8080 C.ar    1  UNL1        0.1135
      4 C         139.9444  144.9517  162.1422 C.ar    1  UNL1        0.0783
      5 CL        139.7803  146.4235  161.9037 Cl      1  UNL1       -0.0806
      6 C         141.2261  144.4231  162.7148 C.ar    1  UNL1        0.0336
      7 C         141.3903  142.9513  162.9532 C.ar    1  UNL1        0.1190
      8 N         142.6719  142.4227  163.5258 N.pl3   1  UNL1       -0.2104
      9 H         143.4924  142.4257  162.9817 H       1  UNL1        0.1739
     10 S         142.7035  141.8893  164.9275 S.O2    1  UNL1        0.0737
     11 O         142.1372  143.1833  165.4326 O.2     1  UNL1       -0.1499
     12 O         143.2697  140.5954  164.4224 O.2     1  UNL1       -0.1499
     13 C         142.7351  141.3560  166.3291 C.ar    1  UNL1        0.1261
     14 C         142.4659  139.9027  166.5848 C.ar    1  UNL1        0.0211
     15 C         142.4975  139.3694  167.9864 C.ar    1  UNL1        0.0136
     16 C         142.7983  140.2894  169.1323 C.ar    1  UNL1        0.0683
     17 CL        142.8299  139.7560  170.5340 Cl      1  UNL1       -0.0814
     18 C         143.0675  141.7428  168.8767 C.ar    1  UNL1        0.0695
     19 CL        143.3682  142.6627  170.0226 Cl      1  UNL1       -0.0813
     20 C         143.0359  142.2761  167.4750 C.ar    1  UNL1        0.0324
     21 O         140.4369  140.5364  162.8575 O.3     1  UNL1       -0.4350
     22 C         139.5518  138.3841  164.0127 C.ar    1  UNL1        0.0486
     23 C         138.8282  137.7230  165.1481 C.ar    1  UNL1        0.0042
     24 C         138.2661  138.5531  166.2639 C.ar    1  UNL1        0.0002
     25 C         138.4275  140.0442  166.2443 C.ar    1  UNL1        0.0031
     26 C         139.1511  140.7052  165.1088 C.ar    1  UNL1        0.0376
     27 C         139.7133  139.8752  163.9930 C.ar    1  UNL1        0.1482
     28 O         139.5432  137.6703  161.5146 O.co2   1  UNL1       -0.5445
     29 C         140.1140  137.5540  162.8969 C.2     1  UNL1        0.0758
     30 O         141.2469  136.6077  163.1633 O.co2   1  UNL1       -0.5445
@<TRIPOS>UNITY_ATOM_ATTR
28 1
charge -1
@<TRIPOS>BOND
     1    28    29   ar
     2    29    30   ar
     3    29    22    1
     4    22    23   ar
     5    23    24   ar
     6    24    25   ar
     7    25    26   ar
     8    26    27   ar
     9    27    21    1
    10    21     1    1
    11     1     2   ar
    12     2     3   ar
    13     3     4   ar
    14     4     5    1
    15     4     6   ar
    16     6     7   ar
    17     7     8    1
    18     8    10    1
    19    10    11    2
    20    10    12    2
    21    10    13    1
    22    13    14   ar
    23    14    15   ar
    24    15    16   ar
    25    16    17    1
    26    16    18   ar
    27    18    19    1
    28    18    20   ar
    29    27    22   ar
    30     7     1   ar
    31    20    13   ar
    32     8     9    1
@<TRIPOS>MOLECULE
*****
 30 32 0 0 0
SMALL
GASTEIGER

@<TRIPOS>ATOM
      1 C         140.2250  142.0300  162.6021 C.ar    1  UNL1        0.2445
      2 N         140.8910  142.6293  161.3990 N.ar    1  UNL1       -0.2078
      3 C         140.7417  144.0937  161.1108 C.ar    1  UNL1        0.1135
      4 C         139.9264  144.9589  162.0255 C.ar    1  UNL1        0.0783
      5 CL        139.7771  146.4233  161.7373 Cl      1  UNL1       -0.0806
      6 C         139.2604  144.3596  163.2285 C.ar    1  UNL1        0.0336
      7 C         139.4096  142.8951  163.5168 C.ar    1  UNL1        0.1190
      8 N         138.7436  142.2958  164.7198 N.pl3   1  UNL1       -0.2104
      9 H         137.7648  142.1927  164.7403 H       1  UNL1        0.1739
     10 S         139.5690  141.8537  165.8917 S.O2    1  UNL1        0.0737
     11 O         138.8403  140.5427  165.9103 O.2     1  UNL1       -0.1499
     12 O         140.2977  143.1647  165.8731 O.2     1  UNL1       -0.1499
     13 C         140.3944  141.4115  167.0635 C.ar    1  UNL1        0.1261
     14 C         139.9888  140.2023  167.8530 C.ar    1  UNL1        0.0211
     15 C         140.8142  139.7602  169.0248 C.ar    1  UNL1        0.0136
     16 C         142.0451  140.5272  169.4073 C.ar    1  UNL1        0.0683
     17 CL        142.8705  140.0851  170.5791 Cl      1  UNL1       -0.0814
     18 C         142.4508  141.7365  168.6178 C.ar    1  UNL1        0.0695
     19 CL        143.6817  142.5036  169.0003 Cl      1  UNL1       -0.0813
     20 C         141.6254  142.1787  167.4460 C.ar    1  UNL1        0.0324
     21 O         140.3743  140.5655  162.8903 O.3     1  UNL1       -0.4350
     22 C         141.4541  138.6973  164.3374 C.ar    1  UNL1        0.0486
     23 C         142.5725  138.2156  165.2130 C.ar    1  UNL1        0.0042
     24 C         143.7297  139.1202  165.5174 C.ar    1  UNL1        0.0002
     25 C         143.7684  140.5065  164.9461 C.ar    1  UNL1        0.0031
     26 C         142.6500  140.9883  164.0704 C.ar    1  UNL1        0.0376
     27 C         141.4928  140.0837  163.7660 C.ar    1  UNL1        0.1482
     28 O         140.1148  137.2482  162.6473 O.co2   1  UNL1       -0.5445
     29 C         140.2969  137.7928  164.0330 C.2     1  UNL1        0.0758
     30 O         139.3217  137.4327  165.1144 O.co2   1  UNL1       -0.5445
@<TRIPOS>UNITY_ATOM_ATTR
28 1
charge -1
@<TRIPOS>BOND
     1    28    29   ar
     2    29    30   ar
     3    29    22    1
     4    22    23   ar
     5    23    24   ar
     6    24    25   ar
     7    25    26   ar
     8    26    27   ar
     9    27    21    1
    10    21     1    1
    11     1     2   ar
    12     2     3   ar
    13     3     4   ar
    14     4     5    1
    15     4     6   ar
    16     6     7   ar
    17     7     8    1
    18     8    10    1
    19    10    11    2
    20    10    12    2
    21    10    13    1
    22    13    14   ar
    23    14    15   ar
    24    15    16   ar
    25    16    17    1
    26    16    18   ar
    27    18    19    1
    28    18    20   ar
    29    27    22   ar
    30     7     1   ar
    31    20    13   ar
    32     8     9    1
@<TRIPOS>MOLECULE
*****
 30 32 0 0 0
SMALL
GASTEIGER

@<TRIPOS>ATOM
      1 C         141.8219  139.6992  167.0689 C.ar    1  UNL1        0.2445
      2 N         142.7820  139.5451  168.2111 N.ar    1  UNL1       -0.2078
      3 C         142.2985  139.6970  169.6229 C.ar    1  UNL1        0.1135
      4 C         140.8551  140.0030  169.8925 C.ar    1  UNL1        0.0783
      5 CL        140.3716  140.1550  171.3043 Cl      1  UNL1       -0.0806
      6 C         139.8950  140.1572  168.7504 C.ar    1  UNL1        0.0336
      7 C         140.3784  140.0052  167.3385 C.ar    1  UNL1        0.1190
      8 N         139.4184  140.1594  166.1964 N.pl3   1  UNL1       -0.2104
      9 H         138.7623  139.4505  166.0058 H       1  UNL1        0.1739
     10 S         139.4579  141.3934  165.3447 S.O2    1  UNL1        0.0737
     11 O         139.0660  140.5796  164.1472 O.2     1  UNL1       -0.1499
     12 O         139.8498  142.2073  166.5422 O.2     1  UNL1       -0.1499
     13 C         139.4975  142.6275  164.4929 C.ar    1  UNL1        0.1261
     14 C         138.3006  143.0132  163.6753 C.ar    1  UNL1        0.0211
     15 C         138.3402  144.2473  162.8236 C.ar    1  UNL1        0.0136
     16 C         139.5766  145.0957  162.7895 C.ar    1  UNL1        0.0683
     17 CL        139.6162  146.3298  161.9378 Cl      1  UNL1       -0.0814
     18 C         140.7736  144.7101  163.6072 C.ar    1  UNL1        0.0695
     19 CL        142.0101  145.5586  163.5731 Cl      1  UNL1       -0.0813
     20 C         140.7341  143.4760  164.4589 C.ar    1  UNL1        0.0324
     21 O         142.3053  139.5472  165.6571 O.3     1  UNL1       -0.4350
     22 C         143.3967  140.5857  163.5404 C.ar    1  UNL1        0.0486
     23 C         144.1619  141.6975  162.8859 C.ar    1  UNL1        0.0042
     24 C         144.6010  142.8827  163.6938 C.ar    1  UNL1        0.0002
     25 C         144.2748  142.9561  165.1560 C.ar    1  UNL1        0.0031
     26 C         143.5096  141.8443  165.8104 C.ar    1  UNL1        0.0376
     27 C         143.0706  140.6591  165.0026 C.ar    1  UNL1        0.1482
     28 O         143.9682  138.3955  162.2651 O.co2   1  UNL1       -0.5445
     29 C         142.9576  139.4005  162.7325 C.2     1  UNL1        0.0758
     30 O         141.5079  139.2204  162.3921 O.co2   1  UNL1       -0.5445
@<TRIPOS>UNITY_ATOM_ATTR
28 1
charge -1
@<TRIPOS>BOND
     1    28    29   ar
     2    29    30   ar
     3    29    22    1
     4    22    23   ar
     5    23    24   ar
     6    24    25   ar
     7    25    26   ar
     8    26    27   ar
     9    27    21    1
    10    21     1    1
    11     1     2   ar
    12     2     3   ar
    13     3     4   ar
    14     4     5    1
    15     4     6   ar
    16     6     7   ar
    17     7     8    1
    18     8    10    1
    19    10    11    2
    20    10    12    2
    21    10    13    1
    22    13    14   ar
    23    14    15   ar
    24    15    16   ar
    25    16    17    1
    26    16    18   ar
    27    18    19    1
    28    18    20   ar
    29    27    22   ar
    30     7     1   ar
    31    20    13   ar
    32     8     9    1
@<TRIPOS>MOLECULE
*****
 30 32 0 0 0
SMALL
GASTEIGER

@<TRIPOS>ATOM
      1 C         140.2339  141.9840  167.2596 C.ar    1  UNL1        0.2445
      2 N         140.6415  143.0186  168.2663 N.ar    1  UNL1       -0.2078
      3 C         140.8080  142.6380  169.7076 C.ar    1  UNL1        0.1135
      4 C         140.5668  141.2228  170.1423 C.ar    1  UNL1        0.0783
      5 CL        140.7333  140.8421  171.5836 Cl      1  UNL1       -0.0806
      6 C         140.1592  140.1882  169.1357 C.ar    1  UNL1        0.0336
      7 C         139.9927  140.5688  167.6943 C.ar    1  UNL1        0.1190
      8 N         139.5850  139.5341  166.6877 N.pl3   1  UNL1       -0.2104
      9 H         138.7378  139.0454  166.7996 H       1  UNL1        0.1739
     10 S         140.4683  139.2441  165.5105 S.O2    1  UNL1        0.0737
     11 O         139.2933  139.3986  164.5909 O.2     1  UNL1       -0.1499
     12 O         141.6432  139.0897  166.4301 O.2     1  UNL1       -0.1499
     13 C         141.3515  138.9541  164.3333 C.ar    1  UNL1        0.1261
     14 C         140.9637  137.8912  163.3485 C.ar    1  UNL1        0.0211
     15 C         141.8469  137.6012  162.1713 C.ar    1  UNL1        0.0136
     16 C         143.1180  138.3740  161.9789 C.ar    1  UNL1        0.0683
     17 CL        144.0012  138.0840  160.8017 Cl      1  UNL1       -0.0814
     18 C         143.5059  139.4370  162.9637 C.ar    1  UNL1        0.0695
     19 CL        144.7769  140.2098  162.7713 Cl      1  UNL1       -0.0813
     20 C         142.6226  139.7270  164.1409 C.ar    1  UNL1        0.0324
     21 O         140.0674  142.3646  165.8183 O.3     1  UNL1       -0.4350
     22 C         140.6676  144.4582  164.4017 C.ar    1  UNL1        0.0486
     23 C         141.6940  145.3220  163.7308 C.ar    1  UNL1        0.0042
     24 C         143.1468  144.9561  163.8055 C.ar    1  UNL1        0.0002
     25 C         143.5731  143.7264  164.5511 C.ar    1  UNL1        0.0031
     26 C         142.5466  142.8626  165.2220 C.ar    1  UNL1        0.0376
     27 C         141.0939  143.2285  165.1473 C.ar    1  UNL1        0.1482
     28 O         138.4607  145.1603  165.5794 O.co2   1  UNL1       -0.5445
     29 C         139.2148  144.8241  164.3271 C.2     1  UNL1        0.0758
     30 O         138.5161  144.8538  163.0001 O.co2   1  UNL1       -0.5445
@<TRIPOS>UNITY_ATOM_ATTR
28 1
charge -1
@<TRIPOS>BOND
     1    28    29   ar
     2    29    30   ar
     3    29    22    1
     4    22    23   ar
     5    23    24   ar
     6    24    25   ar
     7    25    26   ar
     8    26    27   ar
     9    27    21    1
    10    21     1    1
    11     1     2   ar
    12     2     3   ar
    13     3     4   ar
    14     4     5    1
    15     4     6   ar
    16     6     7   ar
    17     7     8    1
    18     8    10    1
    19    10    11    2
    20    10    12    2
    21    10    13    1
    22    13    14   ar
    23    14    15   ar
    24    15    16   ar
    25    16    17    1
    26    16    18   ar
    27    18    19    1
    28    18    20   ar
    29    27    22   ar
    30     7     1   ar
    31    20    13   ar
    32     8     9    1
@<TRIPOS>MOLECULE
*****
 30 32 0 0 0
SMALL
GASTEIGER

@<TRIPOS>ATOM
      1 C         142.7050  141.7215  166.6010 C.ar    1  UNL1        0.2445
      2 N         142.5521  142.2307  168.0036 N.ar    1  UNL1       -0.2078
      3 C         142.4957  141.2651  169.1501 C.ar    1  UNL1        0.1135
      4 C         142.5922  139.7903  168.8939 C.ar    1  UNL1        0.0783
      5 CL        142.5358  138.8246  170.0404 Cl      1  UNL1       -0.0806
      6 C         142.7450  139.2811  167.4913 C.ar    1  UNL1        0.0336
      7 C         142.8015  140.2467  166.3448 C.ar    1  UNL1        0.1190
      8 N         142.9543  139.7375  164.9422 N.pl3   1  UNL1       -0.2104
      9 H         143.8291  139.4118  164.6294 H       1  UNL1        0.1739
     10 S         141.7744  139.7245  164.0162 S.O2    1  UNL1        0.0737
     11 O         142.5316  140.5745  163.0394 O.2     1  UNL1       -0.1499
     12 O         141.0171  138.8746  164.9930 O.2     1  UNL1       -0.1499
     13 C         140.5944  139.7116  163.0902 C.ar    1  UNL1        0.1261
     14 C         140.1116  138.4160  162.5087 C.ar    1  UNL1        0.0211
     15 C         138.9316  138.4030  161.5826 C.ar    1  UNL1        0.0136
     16 C         138.2344  139.6857  161.2382 C.ar    1  UNL1        0.0683
     17 CL        137.0544  139.6728  160.3122 Cl      1  UNL1       -0.0814
     18 C         138.7172  140.9814  161.8198 C.ar    1  UNL1        0.0695
     19 CL        138.0200  142.2641  161.4753 Cl      1  UNL1       -0.0813
     20 C         139.8972  140.9943  162.7458 C.ar    1  UNL1        0.0324
     21 O         142.7614  142.6871  165.4545 O.3     1  UNL1       -0.4350
     22 C         141.5738  144.3685  163.8693 C.ar    1  UNL1        0.0486
     23 C         140.3225  145.0501  163.4007 C.ar    1  UNL1        0.0042
     24 C         139.0076  144.7321  164.0485 C.ar    1  UNL1        0.0002
     25 C         138.9438  143.7325  165.1650 C.ar    1  UNL1        0.0031
     26 C         140.1951  143.0508  165.6337 C.ar    1  UNL1        0.0376
     27 C         141.5101  143.3688  164.9858 C.ar    1  UNL1        0.1482
     28 O         143.9745  145.3509  164.0149 O.co2   1  UNL1       -0.5445
     29 C         142.8888  144.6865  163.2215 C.2     1  UNL1        0.0758
     30 O         143.1180  144.3400  161.7802 O.co2   1  UNL1       -0.5445
@<TRIPOS>UNITY_ATOM_ATTR
28 1
charge -1
@<TRIPOS>BOND
     1    28    29   ar
     2    29    30   ar
     3    29    22    1
     4    22    23   ar
     5    23    24   ar
     6    24    25   ar
     7    25    26   ar
     8    26    27   ar
     9    27    21    1
    10    21     1    1
    11     1     2   ar
    12     2     3   ar
    13     3     4   ar
    14     4     5    1
    15     4     6   ar
    16     6     7   ar
    17     7     8    1
    18     8    10    1
    19    10    11    2
    20    10    12    2
    21    10    13    1
    22    13    14   ar
    23    14    15   ar
    24    15    16   ar
    25    16    17    1
    26    16    18   ar
    27    18    19    1
    28    18    20   ar
    29    27    22   ar
    30     7     1   ar
    31    20    13   ar
    32     8     9    1
@<TRIPOS>MOLECULE
*****
 30 32 0 0 0
SMALL
GASTEIGER

@<TRIPOS>ATOM
      1 C         141.4081  140.5140  161.6628 C.ar    1  UNL1        0.2445
      2 N         140.3941  140.6289  160.5634 N.ar    1  UNL1       -0.2078
      3 C         139.1481  139.7947  160.6022 C.ar    1  UNL1        0.1135
      4 C         138.9160  138.8456  161.7403 C.ar    1  UNL1        0.0783
      5 CL        137.6701  138.0114  161.7791 Cl      1  UNL1       -0.0806
      6 C         139.9300  138.7307  162.8397 C.ar    1  UNL1        0.0336
      7 C         141.1761  139.5649  162.8009 C.ar    1  UNL1        0.1190
      8 N         142.1900  139.4500  163.9003 N.pl3   1  UNL1       -0.2104
      9 H         143.1368  139.2912  163.6821 H       1  UNL1        0.1739
     10 S         141.7615  139.5772  165.3321 S.O2    1  UNL1        0.0737
     11 O         142.1648  138.1537  165.5792 O.2     1  UNL1       -0.1499
     12 O         141.3581  141.0006  165.0851 O.2     1  UNL1       -0.1499
     13 C         141.3329  139.7043  166.7640 C.ar    1  UNL1        0.1261
     14 C         139.8855  139.9119  167.0980 C.ar    1  UNL1        0.0211
     15 C         139.4569  140.0391  168.5299 C.ar    1  UNL1        0.0136
     16 C         140.4758  139.9585  169.6277 C.ar    1  UNL1        0.0683
     17 CL        140.0473  140.0856  171.0595 Cl      1  UNL1       -0.0814
     18 C         141.9234  139.7508  169.2937 C.ar    1  UNL1        0.0695
     19 CL        142.9424  139.6702  170.3915 Cl      1  UNL1       -0.0813
     20 C         142.3520  139.6237  167.8618 C.ar    1  UNL1        0.0324
     21 O         142.6541  141.3483  161.6240 O.3     1  UNL1       -0.4350
     22 C         143.8286  142.9048  163.3409 C.ar    1  UNL1        0.0486
     23 C         143.8859  144.2026  164.0908 C.ar    1  UNL1        0.0042
     24 C         142.8260  145.2416  163.8739 C.ar    1  UNL1        0.0002
     25 C         141.7089  144.9829  162.9070 C.ar    1  UNL1        0.0031
     26 C         141.6516  143.6851  162.1571 C.ar    1  UNL1        0.0376
     27 C         142.7114  142.6461  162.3740 C.ar    1  UNL1        0.1482
     28 O         144.7544  140.8807  164.6810 O.co2   1  UNL1       -0.5445
     29 C         144.8885  141.8658  163.5578 C.2     1  UNL1        0.0758
     30 O         146.0825  141.8118  162.6516 O.co2   1  UNL1       -0.5445
@<TRIPOS>UNITY_ATOM_ATTR
28 1
charge -1
@<TRIPOS>BOND
     1    28    29   ar
     2    29    30   ar
     3    29    22    1
     4    22    23   ar
     5    23    24   ar
     6    24    25   ar
     7    25    26   ar
     8    26    27   ar
     9    27    21    1
    10    21     1    1
    11     1     2   ar
    12     2     3   ar
    13     3     4   ar
    14     4     5    1
    15     4     6   ar
    16     6     7   ar
    17     7     8    1
    18     8    10    1
    19    10    11    2
    20    10    12    2
    21    10    13    1
    22    13    14   ar
    23    14    15   ar
    24    15    16   ar
    25    16    17    1
    26    16    18   ar
    27    18    19    1
    28    18    20   ar
    29    27    22   ar
    30     7     1   ar
    31    20    13   ar
    32     8     9    1
@<TRIPOS>MOLECULE
*****
 30 32 0 0 0
SMALL
GASTEIGER

@<TRIPOS>ATOM
      1 C         138.7043  139.9698  161.9027 C.ar    1  UNL1        0.2445
      2 N         138.4691  141.0674  160.9077 N.ar    1  UNL1       -0.2078
      3 C         138.0892  142.4393  161.3802 C.ar    1  UNL1        0.1135
      4 C         137.9444  142.7138  162.8478 C.ar    1  UNL1        0.0783
      5 CL        137.5645  144.0857  163.3203 Cl      1  UNL1       -0.0806
      6 C         138.1796  141.6163  163.8428 C.ar    1  UNL1        0.0336
      7 C         138.5596  140.2442  163.3703 C.ar    1  UNL1        0.1190
      8 N         138.7948  139.1467  164.3653 N.pl3   1  UNL1       -0.2104
      9 H         138.6551  138.2077  164.1046 H       1  UNL1        0.1739
     10 S         139.2428  139.4799  165.7575 S.O2    1  UNL1        0.0737
     11 O         140.6134  139.8011  165.2396 O.2     1  UNL1       -0.1499
     12 O         137.8721  139.1586  166.2754 O.2     1  UNL1       -0.1499
     13 C         139.6907  139.8130  167.1498 C.ar    1  UNL1        0.1261
     14 C         138.6965  139.8341  168.2727 C.ar    1  UNL1        0.0211
     15 C         139.1444  140.1673  169.6649 C.ar    1  UNL1        0.0136
     16 C         140.5867  140.4794  169.9342 C.ar    1  UNL1        0.0683
     17 CL        141.0346  140.8125  171.3265 Cl      1  UNL1       -0.0814
     18 C         141.5810  140.4582  168.8113 C.ar    1  UNL1        0.0695
     19 CL        143.0232  140.7703  169.0806 Cl      1  UNL1       -0.0813
     20 C         141.1330  140.1251  167.4190 C.ar    1  UNL1        0.0324
     21 O         139.0842  138.5978  161.4302 O.3     1  UNL1       -0.4350
     22 C         141.5881  138.0314  161.0304 C.ar    1  UNL1        0.0486
     23 C         142.7465  137.8547  160.0940 C.ar    1  UNL1        0.0042
     24 C         142.5595  138.0678  158.6210 C.ar    1  UNL1        0.0002
     25 C         141.2141  138.4576  158.0844 C.ar    1  UNL1        0.0031
     26 C         140.0557  138.6342  159.0208 C.ar    1  UNL1        0.0376
     27 C         140.2427  138.4211  160.4938 C.ar    1  UNL1        0.1482
     28 O         142.8843  138.5215  163.2280 O.co2   1  UNL1       -0.5445
     29 C         141.7751  137.8183  162.5033 C.2     1  UNL1        0.0758
     30 O         140.8529  136.9020  163.2516 O.co2   1  UNL1       -0.5445
@<TRIPOS>UNITY_ATOM_ATTR
28 1
charge -1
@<TRIPOS>BOND
     1    28    29   ar
     2    29    30   ar
     3    29    22    1
     4    22    23   ar
     5    23    24   ar
     6    24    25   ar
     7    25    26   ar
     8    26    27   ar
     9    27    21    1
    10    21     1    1
    11     1     2   ar
    12     2     3   ar
    13     3     4   ar
    14     4     5    1
    15     4     6   ar
    16     6     7   ar
    17     7     8    1
    18     8    10    1
    19    10    11    2
    20    10    12    2
    21    10    13    1
    22    13    14   ar
    23    14    15   ar
    24    15    16   ar
    25    16    17    1
    26    16    18   ar
    27    18    19    1
    28    18    20   ar
    29    27    22   ar
    30     7     1   ar
    31    20    13   ar
    32     8     9    1
@<TRIPOS>MOLECULE
*****
 30 32 0 0 0
SMALL
GASTEIGER

@<TRIPOS>ATOM
      1 C         141.3363  142.4263  162.3644 C.ar    1  UNL1        0.2445
      2 N         140.3416  142.6010  161.2552 N.ar    1  UNL1       -0.2078
      3 C         139.7596  143.9550  160.9761 C.ar    1  UNL1        0.1135
      4 C         140.1723  145.1343  161.8060 C.ar    1  UNL1        0.0783
      5 CL        139.5904  146.4883  161.5269 Cl      1  UNL1       -0.0806
      6 C         141.1670  144.9597  162.9151 C.ar    1  UNL1        0.0336
      7 C         141.7490  143.6056  163.1943 C.ar    1  UNL1        0.1190
      8 N         142.7436  143.4310  164.3034 N.pl3   1  UNL1       -0.2104
      9 H         143.6437  143.8219  164.2235 H       1  UNL1        0.1739
     10 S         142.3670  142.6609  165.5343 S.O2    1  UNL1        0.0737
     11 O         143.7240  142.0219  165.5497 O.2     1  UNL1       -0.1499
     12 O         141.0100  143.2998  165.5188 O.2     1  UNL1       -0.1499
     13 C         141.9904  141.8907  166.7651 C.ar    1  UNL1        0.1261
     14 C         142.9350  141.8273  167.9285 C.ar    1  UNL1        0.0211
     15 C         142.5584  141.0571  169.1594 C.ar    1  UNL1        0.0136
     16 C         141.2371  140.3504  169.2268 C.ar    1  UNL1        0.0683
     17 CL        140.8604  139.5803  170.4577 Cl      1  UNL1       -0.0814
     18 C         140.2923  140.4138  168.0634 C.ar    1  UNL1        0.0695
     19 CL        138.9710  139.7071  168.1309 Cl      1  UNL1       -0.0813
     20 C         140.6689  141.1840  166.8326 C.ar    1  UNL1        0.0324
     21 O         141.9183  141.0723  162.6435 O.3     1  UNL1       -0.4350
     22 C         141.7986  138.8814  164.0349 C.ar    1  UNL1        0.0486
     23 C         140.9939  137.8585  164.7806 C.ar    1  UNL1        0.0042
     24 C         139.5043  138.0035  164.8807 C.ar    1  UNL1        0.0002
     25 C         138.8193  139.1713  164.2351 C.ar    1  UNL1        0.0031
     26 C         139.6240  140.1942  163.4894 C.ar    1  UNL1        0.0376
     27 C         141.1136  140.0493  163.3893 C.ar    1  UNL1        0.1482
     28 O         143.9260  138.4450  162.6088 O.co2   1  UNL1       -0.5445
     29 C         143.2882  138.7365  163.9348 C.2     1  UNL1        0.0758
     30 O         144.1401  138.8830  165.1607 O.co2   1  UNL1       -0.5445
@<TRIPOS>UNITY_ATOM_ATTR
28 1
charge -1
@<TRIPOS>BOND
     1    28    29   ar
     2    29    30   ar
     3    29    22    1
     4    22    23   ar
     5    23    24   ar
     6    24    25   ar
     7    25    26   ar
     8    26    27   ar
     9    27    21    1
    10    21     1    1
    11     1     2   ar
    12     2     3   ar
    13     3     4   ar
    14     4     5    1
    15     4     6   ar
    16     6     7   ar
    17     7     8    1
    18     8    10    1
    19    10    11    2
    20    10    12    2
    21    10    13    1
    22    13    14   ar
    23    14    15   ar
    24    15    16   ar
    25    16    17    1
    26    16    18   ar
    27    18    19    1
    28    18    20   ar
    29    27    22   ar
    30     7     1   ar
    31    20    13   ar
    32     8     9    1
@<TRIPOS>MOLECULE
*****
 30 32 0 0 0
SMALL
GASTEIGER

@<TRIPOS>ATOM
      1 C         141.5480  141.7223  162.7245 C.ar    1  UNL1        0.2445
      2 N         141.6190  142.9386  161.8495 N.ar    1  UNL1       -0.2078
      3 C         142.8493  143.2050  161.0338 C.ar    1  UNL1        0.1135
      4 C         144.0086  142.2551  161.0930 C.ar    1  UNL1        0.0783
      5 CL        145.2389  142.5214  160.2773 Cl      1  UNL1       -0.0806
      6 C         143.9377  141.0387  161.9679 C.ar    1  UNL1        0.0336
      7 C         142.7074  140.7723  162.7837 C.ar    1  UNL1        0.1190
      8 N         142.6364  139.5560  163.6586 N.pl3   1  UNL1       -0.2104
      9 H         142.9359  138.6837  163.3141 H       1  UNL1        0.1739
     10 S         142.1092  139.6687  165.0584 S.O2    1  UNL1        0.0737
     11 O         143.1566  140.6962  165.3701 O.2     1  UNL1       -0.1499
     12 O         141.0619  138.6412  164.7466 O.2     1  UNL1       -0.1499
     13 C         141.5820  139.7814  166.4581 C.ar    1  UNL1        0.1261
     14 C         140.1024  139.8145  166.7019 C.ar    1  UNL1        0.0211
     15 C         139.5752  139.9272  168.1017 C.ar    1  UNL1        0.0136
     16 C         140.5276  140.0067  169.2577 C.ar    1  UNL1        0.0683
     17 CL        140.0004  140.1194  170.6575 Cl      1  UNL1       -0.0814
     18 C         142.0074  139.9736  169.0140 C.ar    1  UNL1        0.0695
     19 CL        142.9598  140.0532  170.1700 Cl      1  UNL1       -0.0813
     20 C         142.5346  139.8610  167.6142 C.ar    1  UNL1        0.0324
     21 O         140.3177  141.4559  163.5402 O.3     1  UNL1       -0.4350
     22 C         138.3470  143.1456  163.6453 C.ar    1  UNL1        0.0486
     23 C         137.6421  144.2782  164.3311 C.ar    1  UNL1        0.0042
     24 C         138.2030  144.8537  165.5976 C.ar    1  UNL1        0.0002
     25 C         139.4688  144.2966  166.1784 C.ar    1  UNL1        0.0031
     26 C         140.1737  143.1640  165.4926 C.ar    1  UNL1        0.0376
     27 C         139.6128  142.5886  164.2260 C.ar    1  UNL1        0.1482
     28 O         136.9943  141.2968  162.4197 O.co2   1  UNL1       -0.5445
     29 C         137.7860  142.5701  162.3787 C.2     1  UNL1        0.0758
     30 O         138.0168  143.2680  161.0712 O.co2   1  UNL1       -0.5445
@<TRIPOS>UNITY_ATOM_ATTR
28 1
charge -1
@<TRIPOS>BOND
     1    28    29   ar
     2    29    30   ar
     3    29    22    1
     4    22    23   ar
     5    23    24   ar
     6    24    25   ar
     7    25    26   ar
     8    26    27   ar
     9    27    21    1
    10    21     1    1
    11     1     2   ar
    12     2     3   ar
    13     3     4   ar
    14     4     5    1
    15     4     6   ar
    16     6     7   ar
    17     7     8    1
    18     8    10    1
    19    10    11    2
    20    10    12    2
    21    10    13    1
    22    13    14   ar
    23    14    15   ar
    24    15    16   ar
    25    16    17    1
    26    16    18   ar
    27    18    19    1
    28    18    20   ar
    29    27    22   ar
    30     7     1   ar
    31    20    13   ar
    32     8     9    1
