@<TRIPOS>MOLECULE
*****
 37 40 0 0 0
SMALL
GASTEIGER

@<TRIPOS>ATOM
      1 N         141.5897  138.6737  159.4251 N.am    1  UNL1       -0.2985
      2 C         142.6817  138.7454  160.4510 C.2     1  UNL1        0.2654
      3 O         144.1107  138.8840  160.0168 O.2     1  UNL1       -0.2684
      4 H         140.6517  138.5827  159.7101 H       1  UNL1        0.1498
      5 C         142.3445  138.6784  161.9110 C.ar    1  UNL1        0.1555
      6 C         143.3288  138.6230  163.0416 C.ar    1  UNL1        0.0402
      7 C         142.5566  138.5654  164.3262 C.ar    1  UNL1        0.0622
      8 N         141.0949  138.5853  163.9896 N.ar    1  UNL1       -0.2336
      9 N         140.9639  138.6551  162.4970 N.ar    1  UNL1       -0.1608
     10 C         139.9631  138.5428  164.9730 C.ar    1  UNL1        0.0824
     11 C         139.6491  139.7489  165.8078 C.ar    1  UNL1        0.0191
     12 C         138.5174  139.7064  166.7911 C.ar    1  UNL1        0.0015
     13 C         137.6995  138.4578  166.9400 C.ar    1  UNL1        0.0001
     14 C         138.0134  137.2517  166.1053 C.ar    1  UNL1        0.0015
     15 C         139.1452  137.2941  165.1218 C.ar    1  UNL1        0.0191
     16 C         143.1430  138.4996  165.7052 C.3     1  UNL1        0.0459
     17 C         142.9598  139.6470  166.6538 C.3     1  UNL1        0.0059
     18 C         143.1068  141.0568  166.1630 C.3     1  UNL1        0.0004
     19 C         142.6295  139.3845  168.0933 C.3     1  UNL1        0.0004
     20 C         141.9268  138.7407  157.9649 C.3     1  UNL1        0.1038
     21 N         142.3072  135.3462  155.4199 N.3     1  UNL1       -0.2689
     22 C         140.8676  135.7656  155.3761 C.3     1  UNL1        0.0735
     23 C         140.4058  136.9468  156.1769 C.3     1  UNL1        0.0332
     24 C         141.3835  137.7087  157.0217 C.3     1  UNL1        0.1000
     25 C         142.8230  137.2894  157.0655 C.3     1  UNL1        0.0332
     26 C         143.2849  136.1081  156.2646 C.3     1  UNL1        0.0735
     27 C         140.1327  138.4864  157.3054 C.1     1  UNL1        0.0729
     28 N         138.8818  139.2640  157.5891 N.1     1  UNL1       -0.1959
     29 C         142.7690  134.1650  154.6190 C.3     1  UNL1        0.0991
     30 C         143.7314  130.2842  156.6837 C.ar    1  UNL1        0.1387
     31 C         142.4165  130.4546  155.9823 C.ar    1  UNL1        0.0366
     32 C         142.0957  131.7482  155.2940 C.ar    1  UNL1        0.0002
     33 C         143.0898  132.8714  155.3072 C.ar    1  UNL1       -0.0059
     34 C         144.4047  132.7010  156.0087 C.ar    1  UNL1        0.0002
     35 C         144.7255  131.4074  156.6969 C.ar    1  UNL1        0.0366
     36 C         144.2491  128.9607  158.8586 C.3     1  UNL1        0.2525
     37 O         144.0522  128.9905  157.3719 O.3     1  UNL1       -0.4714
@<TRIPOS>BOND
     1    36    37    1
     2    37    30    1
     3    30    31   ar
     4    31    32   ar
     5    32    33   ar
     6    33    29    1
     7    29    21    1
     8    21    22    1
     9    22    23    1
    10    23    24    1
    11    24    27    1
    12    27    28    3
    13    24    20    1
    14    20     1    1
    15     1     2   am
    16     2     3    2
    17     2     5    1
    18     5     6   ar
    19     6     7   ar
    20     7    16    1
    21    16    17    1
    22    17    18    1
    23    17    19    1
    24     7     8   ar
    25     8    10    1
    26    10    11   ar
    27    11    12   ar
    28    12    13   ar
    29    13    14   ar
    30    14    15   ar
    31     8     9   ar
    32    24    25    1
    33    25    26    1
    34    33    34   ar
    35    34    35   ar
    36    35    30   ar
    37    26    21    1
    38     9     5   ar
    39    15    10   ar
    40     1     4    1
@<TRIPOS>MOLECULE
*****
 37 40 0 0 0
SMALL
GASTEIGER

@<TRIPOS>ATOM
      1 N         141.3584  138.3534  158.8916 N.am    1  UNL1       -0.2985
      2 C         142.3161  138.5948  160.0206 C.2     1  UNL1        0.2654
      3 O         143.7827  138.7405  159.7418 O.2     1  UNL1       -0.2684
      4 H         140.3958  138.2578  159.0745 H       1  UNL1        0.1498
      5 C         141.8070  138.6905  161.4283 C.ar    1  UNL1        0.1555
      6 C         140.5286  138.1003  161.9455 C.ar    1  UNL1        0.0402
      7 C         140.4183  138.4382  163.4028 C.ar    1  UNL1        0.0622
      8 N         141.6286  139.2372  163.7862 N.ar    1  UNL1       -0.2336
      9 N         142.4868  139.3931  162.5659 N.ar    1  UNL1       -0.1608
     10 C         141.9280  139.7842  165.1504 C.ar    1  UNL1        0.0824
     11 C         142.4506  138.8765  166.2243 C.ar    1  UNL1        0.0191
     12 C         142.7500  139.4234  167.5885 C.ar    1  UNL1        0.0015
     13 C         142.5268  140.8780  167.8790 C.ar    1  UNL1        0.0001
     14 C         142.0042  141.7857  166.8052 C.ar    1  UNL1        0.0015
     15 C         141.7048  141.2388  165.4409 C.ar    1  UNL1        0.0191
     16 C         139.2951  138.0459  164.3162 C.3     1  UNL1        0.0459
     17 C         138.5248  139.1007  165.0537 C.3     1  UNL1        0.0059
     18 C         138.1664  138.8972  166.4960 C.3     1  UNL1        0.0004
     19 C         138.1129  140.3591  164.3488 C.3     1  UNL1        0.0004
     20 C         141.8674  138.2577  157.4837 C.3     1  UNL1        0.1038
     21 N         142.7109  134.5522  155.5597 N.3     1  UNL1       -0.2689
     22 C         141.2886  134.8997  155.2334 C.3     1  UNL1        0.0735
     23 C         140.6833  136.1630  155.7696 C.3     1  UNL1        0.0332
     24 C         141.5002  137.0790  156.6319 C.3     1  UNL1        0.1000
     25 C         142.9224  136.7316  156.9582 C.3     1  UNL1        0.0332
     26 C         143.5278  135.4681  156.4221 C.3     1  UNL1        0.0735
     27 C         140.2054  137.8358  156.6015 C.1     1  UNL1        0.0729
     28 N         138.9107  138.5925  156.5711 N.1     1  UNL1       -0.1959
     29 C         143.3162  133.2888  155.0236 C.3     1  UNL1        0.0991
     30 C         144.1990  129.8612  157.8024 C.ar    1  UNL1        0.1387
     31 C         143.0673  129.7605  156.8232 C.ar    1  UNL1        0.0366
     32 C         142.7730  130.9030  155.8969 C.ar    1  UNL1        0.0002
     33 C         143.6105  132.1463  155.9499 C.ar    1  UNL1       -0.0059
     34 C         144.7422  132.2470  156.9291 C.ar    1  UNL1        0.0002
     35 C         145.0365  131.1045  157.8554 C.ar    1  UNL1        0.0366
     36 C         143.5672  128.4212  159.8706 C.3     1  UNL1        0.2525
     37 O         144.4933  128.7186  158.7287 O.3     1  UNL1       -0.4714
@<TRIPOS>BOND
     1    36    37    1
     2    37    30    1
     3    30    31   ar
     4    31    32   ar
     5    32    33   ar
     6    33    29    1
     7    29    21    1
     8    21    22    1
     9    22    23    1
    10    23    24    1
    11    24    27    1
    12    27    28    3
    13    24    20    1
    14    20     1    1
    15     1     2   am
    16     2     3    2
    17     2     5    1
    18     5     6   ar
    19     6     7   ar
    20     7    16    1
    21    16    17    1
    22    17    18    1
    23    17    19    1
    24     7     8   ar
    25     8    10    1
    26    10    11   ar
    27    11    12   ar
    28    12    13   ar
    29    13    14   ar
    30    14    15   ar
    31     8     9   ar
    32    24    25    1
    33    25    26    1
    34    33    34   ar
    35    34    35   ar
    36    35    30   ar
    37    26    21    1
    38     9     5   ar
    39    15    10   ar
    40     1     4    1
@<TRIPOS>MOLECULE
*****
 37 40 0 0 0
SMALL
GASTEIGER

@<TRIPOS>ATOM
      1 N         140.1994  138.1024  158.5207 N.am    1  UNL1       -0.2985
      2 C         139.3054  138.8392  159.4736 C.2     1  UNL1        0.2654
      3 O         138.1663  139.6622  158.9491 O.2     1  UNL1       -0.2684
      4 H         140.9471  137.5622  158.8649 H       1  UNL1        0.1498
      5 C         139.5507  138.7530  160.9509 C.ar    1  UNL1        0.1555
      6 C         138.5954  138.2123  161.9731 C.ar    1  UNL1        0.0402
      7 C         139.2485  138.3175  163.3194 C.ar    1  UNL1        0.0622
      8 N         140.6076  138.9232  163.1290 N.ar    1  UNL1       -0.2336
      9 N         140.7943  139.1923  161.6653 N.ar    1  UNL1       -0.1608
     10 C         141.6048  139.2094  164.2124 C.ar    1  UNL1        0.0824
     11 C         141.9174  140.6275  164.5885 C.ar    1  UNL1        0.0191
     12 C         142.9145  140.9137  165.6718 C.ar    1  UNL1        0.0015
     13 C         143.5991  139.7819  166.3792 C.ar    1  UNL1        0.0001
     14 C         143.2866  138.3639  166.0032 C.ar    1  UNL1        0.0015
     15 C         142.2894  138.0776  164.9198 C.ar    1  UNL1        0.0191
     16 C         138.6481  137.8917  164.6263 C.3     1  UNL1        0.0459
     17 C         138.2036  138.9243  165.6193 C.3     1  UNL1        0.0059
     18 C         137.7361  138.5031  166.9810 C.3     1  UNL1        0.0004
     19 C         138.2267  140.3781  165.2507 C.3     1  UNL1        0.0004
     20 C         139.9542  138.1885  157.0433 C.3     1  UNL1        0.1038
     21 N         142.6623  135.1666  155.7479 N.3     1  UNL1       -0.2689
     22 C         141.4657  135.0962  154.8461 C.3     1  UNL1        0.0735
     23 C         140.3194  136.0428  155.0456 C.3     1  UNL1        0.0332
     24 C         140.3696  137.0598  156.1470 C.3     1  UNL1        0.1000
     25 C         141.5661  137.1303  157.0489 C.3     1  UNL1        0.0332
     26 C         142.7125  136.1836  156.8493 C.3     1  UNL1        0.0735
     27 C         139.0288  137.3814  155.5564 C.1     1  UNL1        0.0729
     28 N         137.6881  137.7030  154.9658 N.1     1  UNL1       -0.1959
     29 C         143.8086  134.2200  155.5484 C.3     1  UNL1        0.0991
     30 C         143.7123  130.1388  157.4418 C.ar    1  UNL1        0.1387
     31 C         142.7607  130.4732  156.3316 C.ar    1  UNL1        0.0366
     32 C         142.7928  131.8335  155.7004 C.ar    1  UNL1        0.0002
     33 C         143.7765  132.8596  156.1795 C.ar    1  UNL1       -0.0059
     34 C         144.7281  132.5252  157.2898 C.ar    1  UNL1        0.0002
     35 C         144.6959  131.1648  157.9209 C.ar    1  UNL1        0.0366
     36 C         143.9536  128.6256  159.5399 C.3     1  UNL1        0.2525
     37 O         143.6802  128.7784  158.0730 O.3     1  UNL1       -0.4714
@<TRIPOS>BOND
     1    36    37    1
     2    37    30    1
     3    30    31   ar
     4    31    32   ar
     5    32    33   ar
     6    33    29    1
     7    29    21    1
     8    21    22    1
     9    22    23    1
    10    23    24    1
    11    24    27    1
    12    27    28    3
    13    24    20    1
    14    20     1    1
    15     1     2   am
    16     2     3    2
    17     2     5    1
    18     5     6   ar
    19     6     7   ar
    20     7    16    1
    21    16    17    1
    22    17    18    1
    23    17    19    1
    24     7     8   ar
    25     8    10    1
    26    10    11   ar
    27    11    12   ar
    28    12    13   ar
    29    13    14   ar
    30    14    15   ar
    31     8     9   ar
    32    24    25    1
    33    25    26    1
    34    33    34   ar
    35    34    35   ar
    36    35    30   ar
    37    26    21    1
    38     9     5   ar
    39    15    10   ar
    40     1     4    1
@<TRIPOS>MOLECULE
*****
 37 40 0 0 0
SMALL
GASTEIGER

@<TRIPOS>ATOM
      1 N         139.9649  140.2090  159.1953 N.am    1  UNL1       -0.2985
      2 C         138.6183  140.4008  159.8278 C.2     1  UNL1        0.2654
      3 O         137.3732  140.1041  159.0457 O.2     1  UNL1       -0.2684
      4 H         140.7821  140.4038  159.7086 H       1  UNL1        0.1498
      5 C         138.5169  140.8895  161.2423 C.ar    1  UNL1        0.1555
      6 C         137.9845  142.2222  161.6787 C.ar    1  UNL1        0.0402
      7 C         138.0687  142.2878  163.1749 C.ar    1  UNL1        0.0622
      8 N         138.6531  140.9954  163.6632 N.ar    1  UNL1       -0.2336
      9 N         138.9302  140.1313  162.4688 N.ar    1  UNL1       -0.1608
     10 C         138.9146  140.6313  165.0946 C.ar    1  UNL1        0.0824
     11 C         138.1522  139.5089  165.7343 C.ar    1  UNL1        0.0191
     12 C         138.4137  139.1448  167.1657 C.ar    1  UNL1        0.0015
     13 C         139.4376  139.9030  167.9575 C.ar    1  UNL1        0.0001
     14 C         140.1999  141.0253  167.3179 C.ar    1  UNL1        0.0015
     15 C         139.9385  141.3895  165.8864 C.ar    1  UNL1        0.0191
     16 C         137.6431  143.4427  164.0321 C.3     1  UNL1        0.0459
     17 C         138.6636  144.4219  164.5319 C.3     1  UNL1        0.0059
     18 C         139.8832  144.7190  163.7107 C.3     1  UNL1        0.0004
     19 C         138.4643  145.1040  165.8529 C.3     1  UNL1        0.0004
     20 C         140.0663  139.7203  157.7807 C.3     1  UNL1        0.1038
     21 N         143.1585  137.2727  156.1707 N.3     1  UNL1       -0.2689
     22 C         143.6359  138.6921  156.0848 C.3     1  UNL1        0.0735
     23 C         142.7632  139.8081  156.5777 C.3     1  UNL1        0.0332
     24 C         141.4131  139.5047  157.1565 C.3     1  UNL1        0.1000
     25 C         140.9356  138.0854  157.2424 C.3     1  UNL1        0.0332
     26 C         141.8083  136.9693  156.7495 C.3     1  UNL1        0.0735
     27 C         141.4228  140.9990  157.2873 C.1     1  UNL1        0.0729
     28 N         141.4326  142.4932  157.4183 N.1     1  UNL1       -0.1959
     29 C         144.0311  136.1567  155.6778 C.3     1  UNL1        0.0991
     30 C         142.4997  131.9254  155.6993 C.ar    1  UNL1        0.1387
     31 C         143.2744  132.4486  156.8724 C.ar    1  UNL1        0.0366
     32 C         143.7849  133.8590  156.8652 C.ar    1  UNL1        0.0002
     33 C         143.5207  134.7463  155.6850 C.ar    1  UNL1       -0.0059
     34 C         142.7460  134.2231  154.5120 C.ar    1  UNL1        0.0002
     35 C         142.2355  132.8126  154.5191 C.ar    1  UNL1        0.0366
     36 C         142.4118  129.5589  154.6307 C.3     1  UNL1        0.2525
     37 O         141.9892  130.5149  155.7065 O.3     1  UNL1       -0.4714
@<TRIPOS>BOND
     1    36    37    1
     2    37    30    1
     3    30    31   ar
     4    31    32   ar
     5    32    33   ar
     6    33    29    1
     7    29    21    1
     8    21    22    1
     9    22    23    1
    10    23    24    1
    11    24    27    1
    12    27    28    3
    13    24    20    1
    14    20     1    1
    15     1     2   am
    16     2     3    2
    17     2     5    1
    18     5     6   ar
    19     6     7   ar
    20     7    16    1
    21    16    17    1
    22    17    18    1
    23    17    19    1
    24     7     8   ar
    25     8    10    1
    26    10    11   ar
    27    11    12   ar
    28    12    13   ar
    29    13    14   ar
    30    14    15   ar
    31     8     9   ar
    32    24    25    1
    33    25    26    1
    34    33    34   ar
    35    34    35   ar
    36    35    30   ar
    37    26    21    1
    38     9     5   ar
    39    15    10   ar
    40     1     4    1
@<TRIPOS>MOLECULE
*****
 37 40 0 0 0
SMALL
GASTEIGER

@<TRIPOS>ATOM
      1 N         140.4698  140.4637  159.9065 N.am    1  UNL1       -0.2985
      2 C         141.5427  140.4523  160.9547 C.2     1  UNL1        0.2654
      3 O         142.9870  140.4519  160.5498 O.2     1  UNL1       -0.2684
      4 H         139.5219  140.4640  160.1722 H       1  UNL1        0.1498
      5 C         141.1712  140.4411  162.4079 C.ar    1  UNL1        0.1555
      6 C         139.7966  140.2162  162.9648 C.ar    1  UNL1        0.0402
      7 C         139.8847  140.2890  164.4605 C.ar    1  UNL1        0.0622
      8 N         141.3138  140.5589  164.8279 N.ar    1  UNL1       -0.2336
      9 N         142.1088  140.6529  163.5594 N.ar    1  UNL1       -0.1608
     10 C         141.8531  140.7086  166.2196 C.ar    1  UNL1        0.0824
     11 C         142.0045  139.5028  167.0990 C.ar    1  UNL1        0.0191
     12 C         142.5437  139.6523  168.4906 C.ar    1  UNL1        0.0015
     13 C         142.9316  141.0077  169.0030 C.ar    1  UNL1        0.0001
     14 C         142.7803  142.2135  168.1237 C.ar    1  UNL1        0.0015
     15 C         142.2410  142.0639  166.7320 C.ar    1  UNL1        0.0191
     16 C         138.7441  140.1213  165.4200 C.3     1  UNL1        0.0459
     17 C         138.4051  138.7604  165.9517 C.3     1  UNL1        0.0059
     18 C         138.8808  137.5337  165.2313 C.3     1  UNL1        0.0004
     19 C         137.5903  138.6261  167.2040 C.3     1  UNL1        0.0004
     20 C         140.8413  140.4749  158.4531 C.3     1  UNL1        0.1038
     21 N         141.8132  137.1861  155.9265 N.3     1  UNL1       -0.2689
     22 C         140.3167  137.2414  156.0150 C.3     1  UNL1        0.0735
     23 C         139.6530  138.3028  156.8413 C.3     1  UNL1        0.0332
     24 C         140.4855  139.3089  157.5791 C.3     1  UNL1        0.1000
     25 C         141.9819  139.2537  157.4907 C.3     1  UNL1        0.0332
     26 C         142.6457  138.1923  156.6644 C.3     1  UNL1        0.0735
     27 C         139.1127  139.7691  157.9711 C.1     1  UNL1        0.0729
     28 N         137.7399  140.2293  158.3630 N.1     1  UNL1       -0.1959
     29 C         142.4769  136.1247  155.1002 C.3     1  UNL1        0.0991
     30 C         143.0162  131.9814  156.7711 C.ar    1  UNL1        0.1387
     31 C         141.9353  132.2501  155.7664 C.ar    1  UNL1        0.0366
     32 C         141.7556  133.6312  155.2095 C.ar    1  UNL1        0.0002
     33 C         142.6567  134.7436  155.6572 C.ar    1  UNL1       -0.0059
     34 C         143.7376  134.4749  156.6619 C.ar    1  UNL1        0.0002
     35 C         143.9174  133.0938  157.2188 C.ar    1  UNL1        0.0366
     36 C         144.4731  130.2324  158.0235 C.3     1  UNL1        0.2525
     37 O         143.1960  130.6003  157.3281 O.3     1  UNL1       -0.4714
@<TRIPOS>BOND
     1    36    37    1
     2    37    30    1
     3    30    31   ar
     4    31    32   ar
     5    32    33   ar
     6    33    29    1
     7    29    21    1
     8    21    22    1
     9    22    23    1
    10    23    24    1
    11    24    27    1
    12    27    28    3
    13    24    20    1
    14    20     1    1
    15     1     2   am
    16     2     3    2
    17     2     5    1
    18     5     6   ar
    19     6     7   ar
    20     7    16    1
    21    16    17    1
    22    17    18    1
    23    17    19    1
    24     7     8   ar
    25     8    10    1
    26    10    11   ar
    27    11    12   ar
    28    12    13   ar
    29    13    14   ar
    30    14    15   ar
    31     8     9   ar
    32    24    25    1
    33    25    26    1
    34    33    34   ar
    35    34    35   ar
    36    35    30   ar
    37    26    21    1
    38     9     5   ar
    39    15    10   ar
    40     1     4    1
@<TRIPOS>MOLECULE
*****
 37 40 0 0 0
SMALL
GASTEIGER

@<TRIPOS>ATOM
      1 N         141.0975  138.6818  158.3008 N.am    1  UNL1       -0.2985
      2 C         139.8579  139.3025  158.8737 C.2     1  UNL1        0.2654
      3 O         138.6356  139.4626  158.0192 O.2     1  UNL1       -0.2684
      4 H         141.8998  138.5767  158.8617 H       1  UNL1        0.1498
      5 C         139.8408  139.7630  160.3012 C.ar    1  UNL1        0.1555
      6 C         140.1841  138.9300  161.5005 C.ar    1  UNL1        0.0402
      7 C         140.0329  139.7895  162.7205 C.ar    1  UNL1        0.0622
      8 N         139.5961  141.1537  162.2752 N.ar    1  UNL1       -0.2336
      9 N         139.4774  141.1373  160.7800 N.ar    1  UNL1       -0.1608
     10 C         139.3255  142.3280  163.1683 C.ar    1  UNL1        0.0824
     11 C         140.4680  143.1030  163.7551 C.ar    1  UNL1        0.0191
     12 C         140.1975  144.2772  164.6482 C.ar    1  UNL1        0.0015
     13 C         138.7845  144.6766  164.9547 C.ar    1  UNL1        0.0001
     14 C         137.6420  143.9017  164.3681 C.ar    1  UNL1        0.0015
     15 C         137.9125  142.7274  163.4749 C.ar    1  UNL1        0.0191
     16 C         140.2758  139.3601  164.1370 C.3     1  UNL1        0.0459
     17 C         139.1377  138.8547  164.9733 C.3     1  UNL1        0.0059
     18 C         138.2418  139.8243  165.6854 C.3     1  UNL1        0.0004
     19 C         138.8956  137.3795  165.0973 C.3     1  UNL1        0.0004
     20 C         141.1147  138.2213  156.8733 C.3     1  UNL1        0.1038
     21 N         142.5245  134.6465  155.0356 N.3     1  UNL1       -0.2689
     22 C         143.7343  135.4394  155.4331 C.3     1  UNL1        0.0735
     23 C         143.5710  136.7664  156.1129 C.3     1  UNL1        0.0332
     24 C         142.1981  137.3007  156.3952 C.3     1  UNL1        0.1000
     25 C         140.9884  136.5079  155.9978 C.3     1  UNL1        0.0332
     26 C         141.1516  135.1807  155.3179 C.3     1  UNL1        0.0735
     27 C         143.0316  138.4133  156.9587 C.1     1  UNL1        0.0729
     28 N         143.8650  139.5258  157.5223 N.1     1  UNL1       -0.1959
     29 C         142.6878  133.3194  154.3557 C.3     1  UNL1        0.0991
     30 C         144.2679  129.7909  156.6585 C.ar    1  UNL1        0.1387
     31 C         144.5453  129.9129  155.1895 C.ar    1  UNL1        0.0366
     32 C         144.0186  131.0890  154.4219 C.ar    1  UNL1        0.0002
     33 C         143.2145  132.1432  155.1233 C.ar    1  UNL1       -0.0059
     34 C         142.9371  132.0213  156.5924 C.ar    1  UNL1        0.0002
     35 C         143.4638  130.8451  157.3600 C.ar    1  UNL1        0.0366
     36 C         145.0834  127.3249  156.7171 C.3     1  UNL1        0.2525
     37 O         144.7946  128.6147  157.4261 O.3     1  UNL1       -0.4714
@<TRIPOS>BOND
     1    36    37    1
     2    37    30    1
     3    30    31   ar
     4    31    32   ar
     5    32    33   ar
     6    33    29    1
     7    29    21    1
     8    21    22    1
     9    22    23    1
    10    23    24    1
    11    24    27    1
    12    27    28    3
    13    24    20    1
    14    20     1    1
    15     1     2   am
    16     2     3    2
    17     2     5    1
    18     5     6   ar
    19     6     7   ar
    20     7    16    1
    21    16    17    1
    22    17    18    1
    23    17    19    1
    24     7     8   ar
    25     8    10    1
    26    10    11   ar
    27    11    12   ar
    28    12    13   ar
    29    13    14   ar
    30    14    15   ar
    31     8     9   ar
    32    24    25    1
    33    25    26    1
    34    33    34   ar
    35    34    35   ar
    36    35    30   ar
    37    26    21    1
    38     9     5   ar
    39    15    10   ar
    40     1     4    1
@<TRIPOS>MOLECULE
*****
 37 40 0 0 0
SMALL
GASTEIGER

@<TRIPOS>ATOM
      1 N         140.0305  144.5729  157.7080 N.am    1  UNL1       -0.2985
      2 C         141.1249  145.1922  158.5259 C.2     1  UNL1        0.2654
      3 O         142.1453  146.0735  157.8687 O.2     1  UNL1       -0.2684
      4 H         139.3607  143.9945  158.1393 H       1  UNL1        0.1498
      5 C         141.1987  144.9299  160.0009 C.ar    1  UNL1        0.1555
      6 C         140.3731  145.6012  161.0582 C.ar    1  UNL1        0.0402
      7 C         140.7751  145.0366  162.3884 C.ar    1  UNL1        0.0622
      8 N         141.8493  144.0163  162.1532 N.ar    1  UNL1       -0.2336
      9 N         142.1111  143.9504  160.6777 N.ar    1  UNL1       -0.1608
     10 C         142.5403  143.2045  163.2084 C.ar    1  UNL1        0.0824
     11 C         144.0087  143.3881  163.4543 C.ar    1  UNL1        0.0191
     12 C         144.6997  142.5764  164.5094 C.ar    1  UNL1        0.0015
     13 C         143.9225  141.5809  165.3188 C.ar    1  UNL1        0.0001
     14 C         142.4542  141.3971  165.0729 C.ar    1  UNL1        0.0015
     15 C         141.7631  142.2089  164.0177 C.ar    1  UNL1        0.0191
     16 C         140.2035  145.4242  163.7199 C.3     1  UNL1        0.0459
     17 C         138.9435  144.7763  164.2125 C.3     1  UNL1        0.0059
     18 C         138.5307  144.9326  165.6460 C.3     1  UNL1        0.0004
     19 C         138.0963  143.9721  163.2714 C.3     1  UNL1        0.0004
     20 C         139.9566  144.8352  156.2328 C.3     1  UNL1        0.1038
     21 N         136.8943  142.3179  154.6741 N.3     1  UNL1       -0.2689
     22 C         136.5353  143.7253  154.2993 C.3     1  UNL1        0.0735
     23 C         137.4265  144.8606  154.7075 C.3     1  UNL1        0.0332
     24 C         138.6767  144.5887  155.4905 C.3     1  UNL1        0.1000
     25 C         139.0357  143.1813  155.8653 C.3     1  UNL1        0.0332
     26 C         138.1445  142.0459  155.4571 C.3     1  UNL1        0.0735
     27 C         138.7622  146.0816  155.3735 C.1     1  UNL1        0.0729
     28 N         138.8477  147.5746  155.2564 N.1     1  UNL1       -0.1959
     29 C         136.0031  141.1825  154.2659 C.3     1  UNL1        0.0991
     30 C         132.2533  140.3150  156.5975 C.ar    1  UNL1        0.1387
     31 C         132.1896  141.1667  155.3644 C.ar    1  UNL1        0.0366
     32 C         133.4395  141.4559  154.5872 C.ar    1  UNL1        0.0002
     33 C         134.7531  140.8933  155.0431 C.ar    1  UNL1       -0.0059
     34 C         134.8169  140.0416  156.2761 C.ar    1  UNL1        0.0002
     35 C         133.5669  139.7525  157.0533 C.ar    1  UNL1        0.0366
     36 C         130.7232  138.6321  157.8531 C.3     1  UNL1        0.2525
     37 O         131.0033  140.0258  157.3747 O.3     1  UNL1       -0.4714
@<TRIPOS>BOND
     1    36    37    1
     2    37    30    1
     3    30    31   ar
     4    31    32   ar
     5    32    33   ar
     6    33    29    1
     7    29    21    1
     8    21    22    1
     9    22    23    1
    10    23    24    1
    11    24    27    1
    12    27    28    3
    13    24    20    1
    14    20     1    1
    15     1     2   am
    16     2     3    2
    17     2     5    1
    18     5     6   ar
    19     6     7   ar
    20     7    16    1
    21    16    17    1
    22    17    18    1
    23    17    19    1
    24     7     8   ar
    25     8    10    1
    26    10    11   ar
    27    11    12   ar
    28    12    13   ar
    29    13    14   ar
    30    14    15   ar
    31     8     9   ar
    32    24    25    1
    33    25    26    1
    34    33    34   ar
    35    34    35   ar
    36    35    30   ar
    37    26    21    1
    38     9     5   ar
    39    15    10   ar
    40     1     4    1
@<TRIPOS>MOLECULE
*****
 37 40 0 0 0
SMALL
GASTEIGER

@<TRIPOS>ATOM
      1 N         141.8564  138.7069  158.3550 N.am    1  UNL1       -0.2985
      2 C         140.5911  138.7361  159.1602 C.2     1  UNL1        0.2654
      3 O         139.2676  138.5301  158.4851 O.2     1  UNL1       -0.2684
      4 H         142.7251  138.8420  158.7981 H       1  UNL1        0.1498
      5 C         140.6495  138.9713  160.6405 C.ar    1  UNL1        0.1555
      6 C         141.7804  139.6147  161.3870 C.ar    1  UNL1        0.0402
      7 C         141.4172  139.6455  162.8421 C.ar    1  UNL1        0.0622
      8 N         140.0619  139.0211  162.9948 N.ar    1  UNL1       -0.2336
      9 N         139.5874  138.6044  161.6341 N.ar    1  UNL1       -0.1608
     10 C         139.3126  138.8444  164.2821 C.ar    1  UNL1        0.0824
     11 C         139.0051  137.4661  164.7879 C.ar    1  UNL1        0.0191
     12 C         138.2559  137.2894  166.0752 C.ar    1  UNL1        0.0015
     13 C         137.8140  138.4910  166.8569 C.ar    1  UNL1        0.0001
     14 C         138.1215  139.8693  166.3512 C.ar    1  UNL1        0.0015
     15 C         138.8708  140.0460  165.0638 C.ar    1  UNL1        0.0191
     16 C         142.2612  140.2028  163.9498 C.3     1  UNL1        0.0459
     17 C         143.2537  139.3238  164.6515 C.3     1  UNL1        0.0059
     18 C         142.7824  138.3098  165.6513 C.3     1  UNL1        0.0004
     19 C         144.7175  139.4590  164.3532 C.3     1  UNL1        0.0004
     20 C         141.7981  138.4716  156.8746 C.3     1  UNL1        0.1038
     21 N         142.8547  134.7243  155.1470 N.3     1  UNL1       -0.2689
     22 C         144.0814  135.5865  155.1032 C.3     1  UNL1        0.0735
     23 C         144.0348  136.9850  155.6436 C.3     1  UNL1        0.0332
     24 C         142.7615  137.5213  156.2277 C.3     1  UNL1        0.1000
     25 C         141.5349  136.6591  156.2715 C.3     1  UNL1        0.0332
     26 C         141.5814  135.2606  155.7311 C.3     1  UNL1        0.0735
     27 C         143.6536  138.7136  156.4086 C.1     1  UNL1        0.0729
     28 N         144.5456  139.9058  156.5894 N.1     1  UNL1       -0.1959
     29 C         142.9013  133.3258  154.6066 C.3     1  UNL1        0.0991
     30 C         143.9359  129.8951  157.3288 C.ar    1  UNL1        0.1387
     31 C         142.7442  129.8006  156.4228 C.ar    1  UNL1        0.0366
     32 C         142.3994  130.9442  155.5154 C.ar    1  UNL1        0.0002
     33 C         143.2462  132.1822  155.5140 C.ar    1  UNL1       -0.0059
     34 C         144.4379  132.2768  156.4201 C.ar    1  UNL1        0.0002
     35 C         144.7827  131.1332  157.3275 C.ar    1  UNL1        0.0366
     36 C         143.5212  128.5529  159.5143 C.3     1  UNL1        0.2525
     37 O         144.2808  128.7516  158.2362 O.3     1  UNL1       -0.4714
@<TRIPOS>BOND
     1    36    37    1
     2    37    30    1
     3    30    31   ar
     4    31    32   ar
     5    32    33   ar
     6    33    29    1
     7    29    21    1
     8    21    22    1
     9    22    23    1
    10    23    24    1
    11    24    27    1
    12    27    28    3
    13    24    20    1
    14    20     1    1
    15     1     2   am
    16     2     3    2
    17     2     5    1
    18     5     6   ar
    19     6     7   ar
    20     7    16    1
    21    16    17    1
    22    17    18    1
    23    17    19    1
    24     7     8   ar
    25     8    10    1
    26    10    11   ar
    27    11    12   ar
    28    12    13   ar
    29    13    14   ar
    30    14    15   ar
    31     8     9   ar
    32    24    25    1
    33    25    26    1
    34    33    34   ar
    35    34    35   ar
    36    35    30   ar
    37    26    21    1
    38     9     5   ar
    39    15    10   ar
    40     1     4    1
@<TRIPOS>MOLECULE
*****
 37 40 0 0 0
SMALL
GASTEIGER

@<TRIPOS>ATOM
      1 N         143.2633  140.5274  159.8038 N.am    1  UNL1       -0.2985
      2 C         143.3401  141.4925  160.9496 C.2     1  UNL1        0.2654
      3 O         143.9158  142.8616  160.7396 O.2     1  UNL1       -0.2684
      4 H         142.8855  139.6288  159.9416 H       1  UNL1        0.1498
      5 C         142.8411  141.0884  162.3052 C.ar    1  UNL1        0.1555
      6 C         143.5507  141.3101  163.6080 C.ar    1  UNL1        0.0402
      7 C         142.6931  140.7504  164.7041 C.ar    1  UNL1        0.0622
      8 N         141.4534  140.1828  164.0785 N.ar    1  UNL1       -0.2336
      9 N         141.5449  140.3917  162.5960 N.ar    1  UNL1       -0.1608
     10 C         140.3212  139.5223  164.8077 C.ar    1  UNL1        0.0824
     11 C         140.0492  138.0612  164.6047 C.ar    1  UNL1        0.0191
     12 C         138.9170  137.4007  165.3338 C.ar    1  UNL1        0.0015
     13 C         138.0566  138.2013  166.2660 C.ar    1  UNL1        0.0001
     14 C         138.3285  139.6623  166.4690 C.ar    1  UNL1        0.0015
     15 C         139.4608  140.3229  165.7399 C.ar    1  UNL1        0.0191
     16 C         143.0181  140.7571  166.1684 C.3     1  UNL1        0.0459
     17 C         143.0075  139.4739  166.9450 C.3     1  UNL1        0.0059
     18 C         142.4035  139.4327  168.3173 C.3     1  UNL1        0.0004
     19 C         143.6010  138.2318  166.3490 C.3     1  UNL1        0.0004
     20 C         143.7624  140.9314  158.4481 C.3     1  UNL1        0.1038
     21 N         142.4785  137.3635  156.5075 N.3     1  UNL1       -0.2689
     22 C         143.5315  137.9803  155.6351 C.3     1  UNL1        0.0735
     23 C         144.1898  139.2635  156.0473 C.3     1  UNL1        0.0332
     24 C         143.7952  139.9300  157.3319 C.3     1  UNL1        0.1000
     25 C         142.7424  139.3133  158.2043 C.3     1  UNL1        0.0332
     26 C         142.0840  138.0300  157.7921 C.3     1  UNL1        0.0735
     27 C         144.8367  140.8945  156.8472 C.1     1  UNL1        0.0729
     28 N         145.8782  141.8590  156.3624 N.1     1  UNL1       -0.1959
     29 C         141.8202  136.0803  156.0953 C.3     1  UNL1        0.0991
     30 C         144.1798  132.2487  156.0671 C.ar    1  UNL1        0.1387
     31 C         143.3126  132.6041  154.8959 C.ar    1  UNL1        0.0366
     32 C         142.5261  133.8813  154.9053 C.ar    1  UNL1        0.0002
     33 C         142.6068  134.8031  156.0859 C.ar    1  UNL1       -0.0059
     34 C         143.4740  134.4477  157.2570 C.ar    1  UNL1        0.0002
     35 C         144.2605  133.1705  157.2476 C.ar    1  UNL1        0.0366
     36 C         144.7391  129.9587  154.9749 C.3     1  UNL1        0.2525
     37 O         144.9664  130.9715  156.0577 O.3     1  UNL1       -0.4714
@<TRIPOS>BOND
     1    36    37    1
     2    37    30    1
     3    30    31   ar
     4    31    32   ar
     5    32    33   ar
     6    33    29    1
     7    29    21    1
     8    21    22    1
     9    22    23    1
    10    23    24    1
    11    24    27    1
    12    27    28    3
    13    24    20    1
    14    20     1    1
    15     1     2   am
    16     2     3    2
    17     2     5    1
    18     5     6   ar
    19     6     7   ar
    20     7    16    1
    21    16    17    1
    22    17    18    1
    23    17    19    1
    24     7     8   ar
    25     8    10    1
    26    10    11   ar
    27    11    12   ar
    28    12    13   ar
    29    13    14   ar
    30    14    15   ar
    31     8     9   ar
    32    24    25    1
    33    25    26    1
    34    33    34   ar
    35    34    35   ar
    36    35    30   ar
    37    26    21    1
    38     9     5   ar
    39    15    10   ar
    40     1     4    1
