@<TRIPOS>MOLECULE
*****
 34 38 0 0 0
SMALL
GASTEIGER

@<TRIPOS>ATOM
      1 C         140.3728  141.2976  165.5447 C.ar    1  UNL1        0.0906
      2 C         140.6328  141.9791  166.8554 C.ar    1  UNL1        0.1496
      3 O         139.9578  143.3183  166.8234 O.2     1  UNL1       -0.4534
      4 C         139.2807  143.4644  165.4929 C.ar    1  UNL1        0.1454
      5 C         138.4637  144.5733  164.8989 C.ar    1  UNL1        0.0406
      6 C         137.9033  144.4333  163.5146 C.ar    1  UNL1        0.0395
      7 C         138.1598  143.1845  162.7243 C.ar    1  UNL1        0.1311
      8 O         137.5993  143.0445  161.3400 O.3     1  UNL1       -0.5058
      9 C         138.9768  142.0756  163.3183 C.ar    1  UNL1        0.0308
     10 C         139.5372  142.2156  164.7026 C.ar    1  UNL1        0.0421
     11 H         137.0890  143.7372  160.9689 H       1  UNL1        0.2922
     12 C         141.4280  141.4197  167.9976 C.ar    1  UNL1        0.0371
     13 C         141.0194  140.1236  168.6323 C.ar    1  UNL1        0.0063
     14 C         141.8146  139.5642  169.7745 C.ar    1  UNL1        0.0391
     15 C         143.0186  140.3009  170.2820 C.ar    1  UNL1        0.1610
     16 O         143.8139  139.7415  171.4242 O.3     1  UNL1       -0.5034
     17 C         143.4273  141.5971  169.6473 C.ar    1  UNL1        0.1736
     18 F         144.6313  142.3339  170.1548 F       1  UNL1       -0.2010
     19 C         142.6320  142.1565  168.5051 C.ar    1  UNL1        0.0358
     20 H         143.5586  138.9318  171.8207 H       1  UNL1        0.2923
     21 C         142.6608  138.4312  164.0284 C.3     1  UNL1        0.1109
     22 N         142.1711  139.7918  164.4271 N.am    1  UNL1       -0.2991
     23 C         140.8626  139.9370  165.1461 C.2     1  UNL1        0.2490
     24 O         140.0439  138.7217  165.4663 O.2     1  UNL1       -0.2700
     25 H         142.7085  140.5895  164.2169 H       1  UNL1        0.1498
     26 C         139.2333  140.8267  162.5281 C.3     1  UNL1        0.1023
     27 N         140.4975  140.6889  161.7326 N.3     1  UNL1       -0.2687
     28 C         141.5526  141.7419  161.5644 C.3     1  UNL1        0.0726
     29 C         142.6358  141.1778  160.6935 C.3     1  UNL1        0.0235
     30 C         142.2502  139.7762  160.3234 C.3     1  UNL1        0.0707
     31 C         142.0670  138.3704  159.8334 C.3     1  UNL1        0.1458
     32 O         143.3760  138.4535  159.1056 O.3     1  UNL1       -0.3535
     33 C         143.5591  139.8594  159.5956 C.3     1  UNL1        0.1458
     34 C         140.9286  139.4741  160.9656 C.3     1  UNL1        0.0772
@<TRIPOS>BOND
     1    21    22    1
     2    22    23   am
     3    23    24    2
     4    23     1    1
     5     1     2   ar
     6     2    12    1
     7    12    13   ar
     8    13    14   ar
     9    14    15   ar
    10    15    16    1
    11    15    17   ar
    12    17    18    1
    13    17    19   ar
    14     2     3   ar
    15     3     4   ar
    16     4     5   ar
    17     5     6   ar
    18     6     7   ar
    19     7     8    1
    20     7     9   ar
    21     9    26    1
    22    26    27    1
    23    27    28    1
    24    28    29    1
    25    29    30    1
    26    30    31    1
    27    31    32    1
    28    32    33    1
    29    30    34    1
    30     9    10   ar
    31    10     1   ar
    32    19    12   ar
    33    10     4   ar
    34    34    27    1
    35    33    30    1
    36    22    25    1
    37    16    20    1
    38     8    11    1
@<TRIPOS>MOLECULE
*****
 34 38 0 0 0
SMALL
GASTEIGER

@<TRIPOS>ATOM
      1 C         139.5792  141.4687  165.8973 C.ar    1  UNL1        0.0906
      2 C         140.1420  142.3497  166.9729 C.ar    1  UNL1        0.1496
      3 O         140.0173  143.7737  166.5181 O.2     1  UNL1       -0.4534
      4 C         139.3774  143.7727  165.1615 C.ar    1  UNL1        0.1454
      5 C         139.0064  144.8849  164.2259 C.ar    1  UNL1        0.0406
      6 C         138.3646  144.5725  162.9067 C.ar    1  UNL1        0.0395
      7 C         138.0938  143.1479  162.5230 C.ar    1  UNL1        0.1311
      8 O         137.4520  142.8355  161.2037 O.3     1  UNL1       -0.5058
      9 C         138.4649  142.0357  163.4585 C.ar    1  UNL1        0.0308
     10 C         139.1067  142.3481  164.7777 C.ar    1  UNL1        0.0421
     11 H         137.2202  143.5303  160.6193 H       1  UNL1        0.2922
     12 C         140.7268  141.8879  168.2748 C.ar    1  UNL1        0.0371
     13 C         139.8487  141.2391  169.3032 C.ar    1  UNL1        0.0063
     14 C         140.4335  140.7773  170.6050 C.ar    1  UNL1        0.0391
     15 C         141.8965  140.9644  170.8784 C.ar    1  UNL1        0.1610
     16 O         142.4813  140.5026  172.1802 O.3     1  UNL1       -0.5034
     17 C         142.7746  141.6132  169.8499 C.ar    1  UNL1        0.1736
     18 F         144.2376  141.8004  170.1233 F       1  UNL1       -0.2010
     19 C         142.1898  142.0750  168.5481 C.ar    1  UNL1        0.0358
     20 H         141.9327  140.0972  172.8227 H       1  UNL1        0.2923
     21 C         138.1191  137.7965  166.2629 C.3     1  UNL1        0.1109
     22 N         138.1958  139.2941  166.2256 N.am    1  UNL1       -0.2991
     23 C         139.5025  139.9711  165.9346 C.2     1  UNL1        0.2490
     24 O         140.7321  139.1505  165.6810 O.2     1  UNL1       -0.2700
     25 H         137.3887  139.8327  166.3921 H       1  UNL1        0.1498
     26 C         138.1942  140.6111  163.0748 C.3     1  UNL1        0.1023
     27 N         139.3202  139.7289  162.6235 N.3     1  UNL1       -0.2687
     28 C         139.2987  138.2300  162.5692 C.3     1  UNL1        0.0726
     29 C         140.6307  137.7654  162.0594 C.3     1  UNL1        0.0235
     30 C         141.4756  138.9772  161.7987 C.3     1  UNL1        0.0707
     31 C         142.4861  140.0360  161.4706 C.3     1  UNL1        0.1458
     32 O         143.4662  138.9751  161.0657 O.3     1  UNL1       -0.3535
     33 C         142.4556  137.9163  161.3938 C.3     1  UNL1        0.1458
     34 C         140.6656  140.1907  162.1473 C.3     1  UNL1        0.0772
@<TRIPOS>BOND
     1    21    22    1
     2    22    23   am
     3    23    24    2
     4    23     1    1
     5     1     2   ar
     6     2    12    1
     7    12    13   ar
     8    13    14   ar
     9    14    15   ar
    10    15    16    1
    11    15    17   ar
    12    17    18    1
    13    17    19   ar
    14     2     3   ar
    15     3     4   ar
    16     4     5   ar
    17     5     6   ar
    18     6     7   ar
    19     7     8    1
    20     7     9   ar
    21     9    26    1
    22    26    27    1
    23    27    28    1
    24    28    29    1
    25    29    30    1
    26    30    31    1
    27    31    32    1
    28    32    33    1
    29    30    34    1
    30     9    10   ar
    31    10     1   ar
    32    19    12   ar
    33    10     4   ar
    34    34    27    1
    35    33    30    1
    36    22    25    1
    37    16    20    1
    38     8    11    1
@<TRIPOS>MOLECULE
*****
 34 38 0 0 0
SMALL
GASTEIGER

@<TRIPOS>ATOM
      1 C         141.6372  140.6964  165.3973 C.ar    1  UNL1        0.0906
      2 C         141.1246  140.6385  166.8058 C.ar    1  UNL1        0.1496
      3 O         139.9989  139.6480  166.8489 O.2     1  UNL1       -0.4534
      4 C         139.8159  139.0938  165.4671 C.ar    1  UNL1        0.1454
      5 C         138.8580  138.0829  164.9099 C.ar    1  UNL1        0.0406
      6 C         138.9127  137.7200  163.4555 C.ar    1  UNL1        0.0395
      7 C         139.9253  138.3679  162.5584 C.ar    1  UNL1        0.1311
      8 O         139.9799  138.0049  161.1039 O.3     1  UNL1       -0.5058
      9 C         140.8831  139.3789  163.1156 C.ar    1  UNL1        0.0308
     10 C         140.8284  139.7418  164.5699 C.ar    1  UNL1        0.0421
     11 H         139.3816  137.3734  160.7559 H       1  UNL1        0.2922
     12 C         141.6460  141.4317  167.9672 C.ar    1  UNL1        0.0371
     13 C         142.9394  141.0436  168.6202 C.ar    1  UNL1        0.0063
     14 C         143.4609  141.8368  169.7817 C.ar    1  UNL1        0.0391
     15 C         142.6889  143.0181  170.2900 C.ar    1  UNL1        0.1610
     16 O         143.2104  143.8114  171.4515 O.3     1  UNL1       -0.5034
     17 C         141.3956  143.4063  169.6370 C.ar    1  UNL1        0.1736
     18 F         140.6236  144.5877  170.1454 F       1  UNL1       -0.2010
     19 C         140.8741  142.6131  168.4756 C.ar    1  UNL1        0.0358
     20 H         144.0183  143.5689  171.8594 H       1  UNL1        0.2923
     21 C         143.6397  143.8650  164.0932 C.3     1  UNL1        0.1109
     22 N         142.5156  143.0036  164.5876 N.am    1  UNL1       -0.2991
     23 C         142.7614  141.5578  164.9029 C.2     1  UNL1        0.2490
     24 O         144.1311  140.9735  164.7239 O.2     1  UNL1       -0.2700
     25 H         141.6166  143.3872  164.7051 H       1  UNL1        0.1498
     26 C         141.8957  140.0268  162.2184 C.3     1  UNL1        0.1023
     27 N         141.6778  141.4286  161.7310 N.3     1  UNL1       -0.2687
     28 C         142.6595  142.2542  160.9532 C.3     1  UNL1        0.0726
     29 C         142.0285  143.5867  160.6773 C.3     1  UNL1        0.0235
     30 C         140.6568  143.5848  161.2845 C.3     1  UNL1        0.0707
     31 C         139.2681  143.8020  161.8080 C.3     1  UNL1        0.1458
     32 O         139.2675  145.1869  161.2316 O.3     1  UNL1       -0.3535
     33 C         140.6563  144.9695  160.7081 C.3     1  UNL1        0.1458
     34 C         140.4401  142.2509  161.9357 C.3     1  UNL1        0.0772
@<TRIPOS>BOND
     1    21    22    1
     2    22    23   am
     3    23    24    2
     4    23     1    1
     5     1     2   ar
     6     2    12    1
     7    12    13   ar
     8    13    14   ar
     9    14    15   ar
    10    15    16    1
    11    15    17   ar
    12    17    18    1
    13    17    19   ar
    14     2     3   ar
    15     3     4   ar
    16     4     5   ar
    17     5     6   ar
    18     6     7   ar
    19     7     8    1
    20     7     9   ar
    21     9    26    1
    22    26    27    1
    23    27    28    1
    24    28    29    1
    25    29    30    1
    26    30    31    1
    27    31    32    1
    28    32    33    1
    29    30    34    1
    30     9    10   ar
    31    10     1   ar
    32    19    12   ar
    33    10     4   ar
    34    34    27    1
    35    33    30    1
    36    22    25    1
    37    16    20    1
    38     8    11    1
@<TRIPOS>MOLECULE
*****
 34 38 0 0 0
SMALL
GASTEIGER

@<TRIPOS>ATOM
      1 C         140.1129  141.5087  165.3978 C.ar    1  UNL1        0.0906
      2 C         140.6053  140.9268  166.6897 C.ar    1  UNL1        0.1496
      3 O         140.3573  139.4478  166.6562 O.2     1  UNL1       -0.4534
      4 C         139.7118  139.1156  165.3436 C.ar    1  UNL1        0.1454
      5 C         139.2420  137.8179  164.7561 C.ar    1  UNL1        0.0406
      6 C         138.6211  137.7939  163.3909 C.ar    1  UNL1        0.0395
      7 C         138.4701  139.0676  162.6132 C.ar    1  UNL1        0.1311
      8 O         137.8492  139.0435  161.2478 O.3     1  UNL1       -0.5058
      9 C         138.9399  140.3653  163.2006 C.ar    1  UNL1        0.0308
     10 C         139.5607  140.3893  164.5659 C.ar    1  UNL1        0.0421
     11 H         137.5557  138.2328  160.8809 H       1  UNL1        0.2922
     12 C         141.2350  141.6899  167.8172 C.ar    1  UNL1        0.0371
     13 C         142.6493  141.3981  168.2226 C.ar    1  UNL1        0.0063
     14 C         143.2790  142.1613  169.3500 C.ar    1  UNL1        0.0391
     15 C         142.4944  143.2162  170.0721 C.ar    1  UNL1        0.1610
     16 O         143.1240  143.9793  171.1995 O.3     1  UNL1       -0.5034
     17 C         141.0800  143.5080  169.6667 C.ar    1  UNL1        0.1736
     18 F         140.2952  144.5629  170.3887 F       1  UNL1       -0.2010
     19 C         140.4503  142.7448  168.5392 C.ar    1  UNL1        0.0358
     20 H         144.0076  143.7970  171.4527 H       1  UNL1        0.2923
     21 C         141.3976  144.9350  163.8616 C.3     1  UNL1        0.1109
     22 N         141.3467  143.4878  164.2529 N.am    1  UNL1       -0.2991
     23 C         140.1638  142.9558  165.0065 C.2     1  UNL1        0.2490
     24 O         139.0320  143.8710  165.3688 O.2     1  UNL1       -0.2700
     25 H         142.0896  142.8872  164.0151 H       1  UNL1        0.1498
     26 C         138.7888  141.6390  162.4229 C.3     1  UNL1        0.1023
     27 N         139.9111  142.1251  161.5546 N.3     1  UNL1       -0.2687
     28 C         141.1555  141.3607  161.2119 C.3     1  UNL1        0.0726
     29 C         141.9996  142.2242  160.3220 C.3     1  UNL1        0.0235
     30 C         141.2770  143.5223  160.1147 C.3     1  UNL1        0.0707
     31 C         140.7388  144.8803  159.7741 C.3     1  UNL1        0.1458
     32 O         141.9604  145.1574  158.9489 O.3     1  UNL1       -0.3535
     33 C         142.4985  143.7993  159.2895 C.3     1  UNL1        0.1458
     34 C         139.9862  143.4610  160.8765 C.3     1  UNL1        0.0772
@<TRIPOS>BOND
     1    21    22    1
     2    22    23   am
     3    23    24    2
     4    23     1    1
     5     1     2   ar
     6     2    12    1
     7    12    13   ar
     8    13    14   ar
     9    14    15   ar
    10    15    16    1
    11    15    17   ar
    12    17    18    1
    13    17    19   ar
    14     2     3   ar
    15     3     4   ar
    16     4     5   ar
    17     5     6   ar
    18     6     7   ar
    19     7     8    1
    20     7     9   ar
    21     9    26    1
    22    26    27    1
    23    27    28    1
    24    28    29    1
    25    29    30    1
    26    30    31    1
    27    31    32    1
    28    32    33    1
    29    30    34    1
    30     9    10   ar
    31    10     1   ar
    32    19    12   ar
    33    10     4   ar
    34    34    27    1
    35    33    30    1
    36    22    25    1
    37    16    20    1
    38     8    11    1
@<TRIPOS>MOLECULE
*****
 34 38 0 0 0
SMALL
GASTEIGER

@<TRIPOS>ATOM
      1 C         141.7971  142.8948  165.2020 C.ar    1  UNL1        0.0906
      2 C         141.0958  142.4668  166.4570 C.ar    1  UNL1        0.1496
      3 O         139.6493  142.8431  166.3310 O.2     1  UNL1       -0.4534
      4 C         139.4566  143.5037  164.9981 C.ar    1  UNL1        0.1454
      5 C         138.2439  144.0803  164.3296 C.ar    1  UNL1        0.0406
      6 C         138.3586  144.6887  162.9634 C.ar    1  UNL1        0.0395
      7 C         139.6861  144.7207  162.2657 C.ar    1  UNL1        0.1311
      8 O         139.8008  145.3292  160.8994 O.3     1  UNL1       -0.5058
      9 C         140.8988  144.1441  162.9342 C.ar    1  UNL1        0.0308
     10 C         140.7840  143.5356  164.3004 C.ar    1  UNL1        0.0421
     11 H         139.0433  145.6893  160.4819 H       1  UNL1        0.2922
     12 C         141.7297  141.7826  167.6318 C.ar    1  UNL1        0.0371
     13 C         141.2194  140.4477  168.0874 C.ar    1  UNL1        0.0063
     14 C         141.8533  139.7635  169.2621 C.ar    1  UNL1        0.0391
     15 C         142.9976  140.4142  169.9813 C.ar    1  UNL1        0.1610
     16 O         143.6315  139.7300  171.1560 O.3     1  UNL1       -0.5034
     17 C         143.5079  141.7491  169.5257 C.ar    1  UNL1        0.1736
     18 F         144.6522  142.3998  170.2448 F       1  UNL1       -0.2010
     19 C         142.8740  142.4333  168.3509 C.ar    1  UNL1        0.0358
     20 H         143.3127  138.8961  171.4406 H       1  UNL1        0.2923
     21 C         145.1994  141.2544  163.9838 C.3     1  UNL1        0.1109
     22 N         143.7411  141.4355  164.2844 N.am    1  UNL1       -0.2991
     23 C         143.2555  142.7137  164.9014 C.2     1  UNL1        0.2490
     24 O         144.2284  143.8106  165.2178 O.2     1  UNL1       -0.2700
     25 H         143.1026  140.7155  164.0767 H       1  UNL1        0.1498
     26 C         142.2263  144.1760  162.2364 C.3     1  UNL1        0.1023
     27 N         142.7062  142.9716  161.4821 N.3     1  UNL1       -0.2687
     28 C         144.0564  142.8078  160.8494 C.3     1  UNL1        0.0726
     29 C         144.1049  141.4546  160.2042 C.3     1  UNL1        0.0235
     30 C         142.7847  140.7819  160.4381 C.3     1  UNL1        0.0707
     31 C         141.5559  139.9292  160.5512 C.3     1  UNL1        0.1458
     32 O         142.2364  138.8448  159.7694 O.3     1  UNL1       -0.3535
     33 C         143.4652  139.6976  159.6564 C.3     1  UNL1        0.1458
     34 C         141.9202  141.7195  161.2279 C.3     1  UNL1        0.0772
@<TRIPOS>BOND
     1    21    22    1
     2    22    23   am
     3    23    24    2
     4    23     1    1
     5     1     2   ar
     6     2    12    1
     7    12    13   ar
     8    13    14   ar
     9    14    15   ar
    10    15    16    1
    11    15    17   ar
    12    17    18    1
    13    17    19   ar
    14     2     3   ar
    15     3     4   ar
    16     4     5   ar
    17     5     6   ar
    18     6     7   ar
    19     7     8    1
    20     7     9   ar
    21     9    26    1
    22    26    27    1
    23    27    28    1
    24    28    29    1
    25    29    30    1
    26    30    31    1
    27    31    32    1
    28    32    33    1
    29    30    34    1
    30     9    10   ar
    31    10     1   ar
    32    19    12   ar
    33    10     4   ar
    34    34    27    1
    35    33    30    1
    36    22    25    1
    37    16    20    1
    38     8    11    1
@<TRIPOS>MOLECULE
*****
 34 38 0 0 0
SMALL
GASTEIGER

@<TRIPOS>ATOM
      1 C         141.4315  142.6593  165.1250 C.ar    1  UNL1        0.0906
      2 C         140.2894  142.7293  166.0949 C.ar    1  UNL1        0.1496
      3 O         139.2800  143.6976  165.5533 O.2     1  UNL1       -0.4534
      4 C         139.7981  144.2261  164.2486 C.ar    1  UNL1        0.1454
      5 C         139.2309  145.2087  163.2675 C.ar    1  UNL1        0.0406
      6 C         139.9934  145.5496  162.0216 C.ar    1  UNL1        0.0395
      7 C         141.3231  144.9080  161.7568 C.ar    1  UNL1        0.1311
      8 O         142.0856  145.2489  160.5109 O.3     1  UNL1       -0.5058
      9 C         141.8903  143.9253  162.7380 C.ar    1  UNL1        0.0308
     10 C         141.1278  143.5844  163.9839 C.ar    1  UNL1        0.0421
     11 H         141.7313  145.8628  159.8980 H       1  UNL1        0.2922
     12 C         140.1767  141.9651  167.3808 C.ar    1  UNL1        0.0371
     13 C         139.6225  140.5712  167.3787 C.ar    1  UNL1        0.0063
     14 C         139.5097  139.8071  168.6645 C.ar    1  UNL1        0.0391
     15 C         139.9512  140.4367  169.9524 C.ar    1  UNL1        0.1610
     16 O         139.8384  139.6725  171.2382 O.3     1  UNL1       -0.5034
     17 C         140.5054  141.8305  169.9544 C.ar    1  UNL1        0.1736
     18 F         140.9469  142.4603  171.2423 F       1  UNL1       -0.2010
     19 C         140.6181  142.5947  168.6686 C.ar    1  UNL1        0.0358
     20 H         139.4922  138.8018  171.2369 H       1  UNL1        0.2923
     21 C         143.8626  139.5248  165.0026 C.3     1  UNL1        0.1109
     22 N         142.6328  140.3712  164.8571 N.am    1  UNL1       -0.2991
     23 C         142.6613  141.8129  165.2705 C.2     1  UNL1        0.2490
     24 O         143.9196  142.4080  165.8294 O.2     1  UNL1       -0.2700
     25 H         141.8069  139.9805  164.4902 H       1  UNL1        0.1498
     26 C         143.2201  143.2837  162.4732 C.3     1  UNL1        0.1023
     27 N         143.2838  141.8937  161.9130 N.3     1  UNL1       -0.2687
     28 C         144.5105  141.0352  161.8220 C.3     1  UNL1        0.0726
     29 C         144.1170  139.7290  161.1981 C.3     1  UNL1        0.0235
     30 C         142.6470  139.7803  160.9036 C.3     1  UNL1        0.0707
     31 C         141.2052  139.6135  160.5251 C.3     1  UNL1        0.1458
     32 O         141.4981  138.2326  160.0178 O.3     1  UNL1       -0.3535
     33 C         142.9400  138.3995  160.3963 C.3     1  UNL1        0.1458
     34 C         142.1321  141.1182  161.3454 C.3     1  UNL1        0.0772
@<TRIPOS>BOND
     1    21    22    1
     2    22    23   am
     3    23    24    2
     4    23     1    1
     5     1     2   ar
     6     2    12    1
     7    12    13   ar
     8    13    14   ar
     9    14    15   ar
    10    15    16    1
    11    15    17   ar
    12    17    18    1
    13    17    19   ar
    14     2     3   ar
    15     3     4   ar
    16     4     5   ar
    17     5     6   ar
    18     6     7   ar
    19     7     8    1
    20     7     9   ar
    21     9    26    1
    22    26    27    1
    23    27    28    1
    24    28    29    1
    25    29    30    1
    26    30    31    1
    27    31    32    1
    28    32    33    1
    29    30    34    1
    30     9    10   ar
    31    10     1   ar
    32    19    12   ar
    33    10     4   ar
    34    34    27    1
    35    33    30    1
    36    22    25    1
    37    16    20    1
    38     8    11    1
@<TRIPOS>MOLECULE
*****
 34 38 0 0 0
SMALL
GASTEIGER

@<TRIPOS>ATOM
      1 C         142.8936  140.8250  165.4210 C.ar    1  UNL1        0.0906
      2 C         142.4246  141.6019  166.6154 C.ar    1  UNL1        0.1496
      3 O         142.7127  143.0528  166.3667 O.2     1  UNL1       -0.4534
      4 C         143.3597  143.1726  165.0188 C.ar    1  UNL1        0.1454
      5 C         143.8615  144.3576  164.2481 C.ar    1  UNL1        0.0406
      6 C         144.4751  144.1657  162.8929 C.ar    1  UNL1        0.0395
      7 C         144.5869  142.7888  162.3084 C.ar    1  UNL1        0.1311
      8 O         145.2005  142.5969  160.9531 O.3     1  UNL1       -0.5058
      9 C         144.0851  141.6038  163.0791 C.ar    1  UNL1        0.0308
     10 C         143.4715  141.7957  164.4343 C.ar    1  UNL1        0.0421
     11 H         145.5140  143.3371  160.4716 H       1  UNL1        0.2922
     12 C         141.7806  141.0286  167.8428 C.ar    1  UNL1        0.0371
     13 C         142.6090  140.7417  169.0599 C.ar    1  UNL1        0.0063
     14 C         141.9650  140.1683  170.2873 C.ar    1  UNL1        0.0391
     15 C         140.4927  139.8819  170.2976 C.ar    1  UNL1        0.1610
     16 O         139.8487  139.3085  171.5250 O.3     1  UNL1       -0.5034
     17 C         139.6643  140.1687  169.0805 C.ar    1  UNL1        0.1736
     18 F         138.1919  139.8823  169.0907 F       1  UNL1       -0.2010
     19 C         140.3083  140.7421  167.8531 C.ar    1  UNL1        0.0358
     20 H         140.3661  139.1293  172.2854 H       1  UNL1        0.2923
     21 C         141.4753  137.2430  164.4679 C.3     1  UNL1        0.1109
     22 N         141.5680  138.7297  164.6445 N.am    1  UNL1       -0.2991
     23 C         142.8009  139.3383  165.2444 C.2     1  UNL1        0.2490
     24 O         143.9409  138.4602  165.6675 O.2     1  UNL1       -0.2700
     25 H         140.8197  139.3060  164.3668 H       1  UNL1        0.1498
     26 C         144.1969  140.2269  162.4945 C.3     1  UNL1        0.1023
     27 N         143.0145  139.6024  161.8149 N.3     1  UNL1       -0.2687
     28 C         142.9494  138.2094  161.2622 C.3     1  UNL1        0.0726
     29 C         141.5843  138.0072  160.6743 C.3     1  UNL1        0.0235
     30 C         140.8056  139.2753  160.8636 C.3     1  UNL1        0.0707
     31 C         139.8517  140.4300  160.9444 C.3     1  UNL1        0.1458
     32 O         138.8056  139.6147  160.2434 O.3     1  UNL1       -0.3535
     33 C         139.7597  138.4601  160.1628 C.3     1  UNL1        0.1458
     34 C         141.6896  140.2611  161.5686 C.3     1  UNL1        0.0772
@<TRIPOS>BOND
     1    21    22    1
     2    22    23   am
     3    23    24    2
     4    23     1    1
     5     1     2   ar
     6     2    12    1
     7    12    13   ar
     8    13    14   ar
     9    14    15   ar
    10    15    16    1
    11    15    17   ar
    12    17    18    1
    13    17    19   ar
    14     2     3   ar
    15     3     4   ar
    16     4     5   ar
    17     5     6   ar
    18     6     7   ar
    19     7     8    1
    20     7     9   ar
    21     9    26    1
    22    26    27    1
    23    27    28    1
    24    28    29    1
    25    29    30    1
    26    30    31    1
    27    31    32    1
    28    32    33    1
    29    30    34    1
    30     9    10   ar
    31    10     1   ar
    32    19    12   ar
    33    10     4   ar
    34    34    27    1
    35    33    30    1
    36    22    25    1
    37    16    20    1
    38     8    11    1
@<TRIPOS>MOLECULE
*****
 34 38 0 0 0
SMALL
GASTEIGER

@<TRIPOS>ATOM
      1 C         139.6686  140.7019  165.0862 C.ar    1  UNL1        0.0906
      2 C         139.6816  139.6668  166.1718 C.ar    1  UNL1        0.1496
      3 O         139.3592  138.3400  165.5508 O.2     1  UNL1       -0.4534
      4 C         139.1469  138.5550  164.0816 C.ar    1  UNL1        0.1454
      5 C         138.8041  137.6102  162.9681 C.ar    1  UNL1        0.0406
      6 C         138.6527  138.1252  161.5675 C.ar    1  UNL1        0.0395
      7 C         138.8439  139.5850  161.2803 C.ar    1  UNL1        0.1311
      8 O         138.6924  140.1000  159.8796 O.3     1  UNL1       -0.5058
      9 C         139.1867  140.5298  162.3938 C.ar    1  UNL1        0.0308
     10 C         139.3381  140.0148  163.7944 C.ar    1  UNL1        0.0421
     11 H         138.4783  139.5098  159.1841 H       1  UNL1        0.2922
     12 C         139.9670  139.9149  167.6233 C.ar    1  UNL1        0.0371
     13 C         138.8355  140.0266  168.6017 C.ar    1  UNL1        0.0063
     14 C         139.1208  140.2747  170.0532 C.ar    1  UNL1        0.0391
     15 C         140.5376  140.4112  170.5264 C.ar    1  UNL1        0.1610
     16 O         140.8230  140.6594  171.9780 O.3     1  UNL1       -0.5034
     17 C         141.6691  140.2996  169.5480 C.ar    1  UNL1        0.1736
     18 F         143.0860  140.4361  170.0212 F       1  UNL1       -0.2010
     19 C         141.3838  140.0514  168.0965 C.ar    1  UNL1        0.0358
     20 H         140.1162  140.7291  172.5891 H       1  UNL1        0.2923
     21 C         139.0838  144.6192  165.3371 C.3     1  UNL1        0.1109
     22 N         138.8137  143.1542  165.1616 N.am    1  UNL1       -0.2991
     23 C         139.9387  142.1669  165.2617 C.2     1  UNL1        0.2490
     24 O         141.3335  142.6447  165.5371 O.2     1  UNL1       -0.2700
     25 H         137.8982  142.8406  164.9809 H       1  UNL1        0.1498
     26 C         139.3779  141.9896  162.1067 C.3     1  UNL1        0.1023
     27 N         140.7547  142.5845  162.1303 N.3     1  UNL1       -0.2687
     28 C         141.0823  144.0480  162.1647 C.3     1  UNL1        0.0726
     29 C         142.5757  144.1884  162.1793 C.3     1  UNL1        0.0235
     30 C         143.1710  142.8118  162.1539 C.3     1  UNL1        0.0707
     31 C         143.9743  141.5453  162.1324 C.3     1  UNL1        0.1458
     32 O         145.2410  142.3482  162.1597 O.3     1  UNL1       -0.3535
     33 C         144.4376  143.6148  162.1812 C.3     1  UNL1        0.1458
     34 C         142.0455  141.8205  162.1236 C.3     1  UNL1        0.0772
@<TRIPOS>BOND
     1    21    22    1
     2    22    23   am
     3    23    24    2
     4    23     1    1
     5     1     2   ar
     6     2    12    1
     7    12    13   ar
     8    13    14   ar
     9    14    15   ar
    10    15    16    1
    11    15    17   ar
    12    17    18    1
    13    17    19   ar
    14     2     3   ar
    15     3     4   ar
    16     4     5   ar
    17     5     6   ar
    18     6     7   ar
    19     7     8    1
    20     7     9   ar
    21     9    26    1
    22    26    27    1
    23    27    28    1
    24    28    29    1
    25    29    30    1
    26    30    31    1
    27    31    32    1
    28    32    33    1
    29    30    34    1
    30     9    10   ar
    31    10     1   ar
    32    19    12   ar
    33    10     4   ar
    34    34    27    1
    35    33    30    1
    36    22    25    1
    37    16    20    1
    38     8    11    1
@<TRIPOS>MOLECULE
*****
 34 38 0 0 0
SMALL
GASTEIGER

@<TRIPOS>ATOM
      1 C         141.4525  142.3415  165.4774 C.ar    1  UNL1        0.0906
      2 C         142.3039  142.3048  166.7118 C.ar    1  UNL1        0.1496
      3 O         143.6571  142.8466  166.3578 O.2     1  UNL1       -0.4534
      4 C         143.6420  143.2182  164.9046 C.ar    1  UNL1        0.1454
      5 C         144.6928  143.8005  164.0066 C.ar    1  UNL1        0.0406
      6 C         144.3812  144.0706  162.5644 C.ar    1  UNL1        0.0395
      7 C         143.0186  143.7584  162.0203 C.ar    1  UNL1        0.1311
      8 O         142.7070  144.0286  160.5781 O.3     1  UNL1       -0.5058
      9 C         141.9678  143.1761  162.9184 C.ar    1  UNL1        0.0308
     10 C         142.2794  142.9060  164.3605 C.ar    1  UNL1        0.0421
     11 H         143.3635  144.3923  160.0171 H       1  UNL1        0.2922
     12 C         141.8771  141.8126  168.0630 C.ar    1  UNL1        0.0371
     13 C         141.1015  142.7127  168.9785 C.ar    1  UNL1        0.0063
     14 C         140.6747  142.2206  170.3297 C.ar    1  UNL1        0.0391
     15 C         141.0235  140.8283  170.7653 C.ar    1  UNL1        0.1610
     16 O         140.5967  140.3362  172.1165 O.3     1  UNL1       -0.5034
     17 C         141.7991  139.9282  169.8498 C.ar    1  UNL1        0.1736
     18 F         142.1479  138.5358  170.2854 F       1  UNL1       -0.2010
     19 C         142.2259  140.4203  168.4986 C.ar    1  UNL1        0.0358
     20 H         140.1122  140.8985  172.6884 H       1  UNL1        0.2923
     21 C         138.2681  139.9800  165.2935 C.3     1  UNL1        0.1109
     22 N         139.6959  140.4290  165.3934 N.am    1  UNL1       -0.2991
     23 C         140.0248  141.8925  165.3775 C.2     1  UNL1        0.2490
     24 O         138.9259  142.9068  165.2615 O.2     1  UNL1       -0.2700
     25 H         140.4171  139.7632  165.4696 H       1  UNL1        0.1498
     26 C         140.6052  142.8639  162.3743 C.3     1  UNL1        0.1023
     27 N         140.2048  141.4398  162.1264 N.3     1  UNL1       -0.2687
     28 C         141.1316  140.2621  162.0600 C.3     1  UNL1        0.0726
     29 C         140.3069  139.0377  161.7940 C.3     1  UNL1        0.0235
     30 C         138.8705  139.4586  161.6960 C.3     1  UNL1        0.0707
     31 C         137.3892  139.6516  161.5604 C.3     1  UNL1        0.1458
     32 O         137.2184  138.1790  161.3310 O.3     1  UNL1       -0.3535
     33 C         138.6998  137.9862  161.4666 C.3     1  UNL1        0.1458
     34 C         138.8074  140.9432  161.9014 C.3     1  UNL1        0.0772
@<TRIPOS>BOND
     1    21    22    1
     2    22    23   am
     3    23    24    2
     4    23     1    1
     5     1     2   ar
     6     2    12    1
     7    12    13   ar
     8    13    14   ar
     9    14    15   ar
    10    15    16    1
    11    15    17   ar
    12    17    18    1
    13    17    19   ar
    14     2     3   ar
    15     3     4   ar
    16     4     5   ar
    17     5     6   ar
    18     6     7   ar
    19     7     8    1
    20     7     9   ar
    21     9    26    1
    22    26    27    1
    23    27    28    1
    24    28    29    1
    25    29    30    1
    26    30    31    1
    27    31    32    1
    28    32    33    1
    29    30    34    1
    30     9    10   ar
    31    10     1   ar
    32    19    12   ar
    33    10     4   ar
    34    34    27    1
    35    33    30    1
    36    22    25    1
    37    16    20    1
    38     8    11    1
