@<TRIPOS>MOLECULE
*****
 27 29 0 0 0
SMALL
GASTEIGER

@<TRIPOS>ATOM
      1 C         140.0177  140.8381  161.6660 C.ar    1  UNL1        0.0615
      2 C         139.6807  141.6838  160.4739 C.ar    1  UNL1        0.0186
      3 C         139.2476  143.1074  160.6626 C.ar    1  UNL1        0.0398
      4 C         139.1514  143.6853  162.0435 C.ar    1  UNL1        0.1568
      5 C         139.4884  142.8396  163.2356 C.ar    1  UNL1        0.1242
      6 N         139.4867  143.1325  164.7067 N.ar    1  UNL1       -0.2208
      7 C         139.9189  141.8898  165.4271 C.ar    1  UNL1        0.1659
      8 S         140.1876  140.8289  164.4013 S.2     1  UNL1       -0.0500
      9 C         139.9215  141.4159  163.0468 C.ar    1  UNL1        0.0664
     10 N         140.4509  139.4144  161.4772 N.am    1  UNL1       -0.2581
     11 C         141.9093  139.0643  161.5040 C.2     1  UNL1        0.2298
     12 C         142.3425  137.6408  161.3152 C.3     1  UNL1        0.0952
     13 O         142.9344  140.1380  161.7195 O.2     1  UNL1       -0.2745
     14 C         138.1039  138.4136  161.9670 C.3     1  UNL1        0.0237
     15 C         139.4257  138.3408  161.2617 C.3     1  UNL1        0.0983
     16 N         140.0579  141.7351  166.9127 N.am    1  UNL1       -0.2594
     17 C         141.4058  141.8666  167.5575 C.2     1  UNL1        0.2683
     18 O         142.6147  142.1527  166.7169 O.2     1  UNL1       -0.2681
     19 H         139.2645  141.5474  167.4644 H       1  UNL1        0.1571
     20 C         141.5447  141.7119  169.0431 C.ar    1  UNL1        0.1330
     21 C         142.1776  140.5524  169.7534 C.ar    1  UNL1        0.0458
     22 C         142.0992  140.8135  171.2284 C.ar    1  UNL1        0.1218
     23 N         141.4178  142.1345  171.4297 N.ar    1  UNL1       -0.1675
     24 N         141.0751  142.6898  170.0790 N.ar    1  UNL1       -0.2443
     25 C         140.3840  143.9939  169.8113 C.3     1  UNL1        0.1539
     26 O         138.7182  145.1090  162.2321 O.3     1  UNL1       -0.4699
     27 C         139.6322  146.2300  161.8348 C.3     1  UNL1        0.2525
@<TRIPOS>BOND
     1    14    15    1
     2    15    10    1
     3    10    11   am
     4    11    12    1
     5    11    13    2
     6    10     1    1
     7     1     2   ar
     8     2     3   ar
     9     3     4   ar
    10     4    26    1
    11    26    27    1
    12     4     5   ar
    13     5     6   ar
    14     6     7   ar
    15     7    16    1
    16    16    17   am
    17    17    18    2
    18    17    20    1
    19    20    21   ar
    20    21    22   ar
    21    22    23   ar
    22    23    24   ar
    23    24    25    1
    24     7     8   ar
    25     8     9   ar
    26     9     1   ar
    27     9     5   ar
    28    24    20   ar
    29    16    19    1
@<TRIPOS>MOLECULE
*****
 27 29 0 0 0
SMALL
GASTEIGER

@<TRIPOS>ATOM
      1 C         141.8041  141.3577  161.3100 C.ar    1  UNL1        0.0615
      2 C         141.5982  142.2579  160.1279 C.ar    1  UNL1        0.0186
      3 C         140.6925  143.4481  160.2402 C.ar    1  UNL1        0.0398
      4 C         139.9925  143.7384  161.5348 C.ar    1  UNL1        0.1568
      5 C         140.1983  142.8383  162.7169 C.ar    1  UNL1        0.1242
      6 N         139.6471  142.8713  164.1116 N.ar    1  UNL1       -0.2208
      7 C         140.2122  141.7013  164.8611 C.ar    1  UNL1        0.1659
      8 S         141.1127  140.9453  163.9297 S.2     1  UNL1       -0.0500
      9 C         141.1041  141.6480  162.6045 C.ar    1  UNL1        0.0664
     10 N         142.7099  140.1674  161.1975 N.am    1  UNL1       -0.2581
     11 C         142.1428  138.8238  160.8463 C.2     1  UNL1        0.2298
     12 C         143.0485  137.6336  160.7339 C.3     1  UNL1        0.0952
     13 O         140.6698  138.6708  160.6075 O.2     1  UNL1       -0.2745
     14 C         144.7053  140.4586  162.8357 C.3     1  UNL1        0.0237
     15 C         144.1828  140.3206  161.4364 C.3     1  UNL1        0.0983
     16 N         139.9269  141.3492  166.2910 N.am    1  UNL1       -0.2594
     17 C         140.9106  141.7127  167.3635 C.2     1  UNL1        0.2683
     18 O         142.1795  142.4283  167.0062 O.2     1  UNL1       -0.2681
     19 H         139.0941  140.8795  166.5255 H       1  UNL1        0.1571
     20 C         140.6252  141.3605  168.7934 C.ar    1  UNL1        0.1330
     21 C         140.4991  139.9741  169.3517 C.ar    1  UNL1        0.0458
     22 C         140.2118  140.0898  170.8194 C.ar    1  UNL1        0.1218
     23 N         140.1604  141.5477  171.1682 N.ar    1  UNL1       -0.1675
     24 N         140.4159  142.3331  169.9160 N.ar    1  UNL1       -0.2443
     25 C         140.4552  143.8285  169.8059 C.3     1  UNL1        0.1539
     26 O         139.0867  144.9288  161.6471 O.3     1  UNL1       -0.4699
     27 C         139.6634  146.3134  161.6398 C.3     1  UNL1        0.2525
@<TRIPOS>BOND
     1    14    15    1
     2    15    10    1
     3    10    11   am
     4    11    12    1
     5    11    13    2
     6    10     1    1
     7     1     2   ar
     8     2     3   ar
     9     3     4   ar
    10     4    26    1
    11    26    27    1
    12     4     5   ar
    13     5     6   ar
    14     6     7   ar
    15     7    16    1
    16    16    17   am
    17    17    18    2
    18    17    20    1
    19    20    21   ar
    20    21    22   ar
    21    22    23   ar
    22    23    24   ar
    23    24    25    1
    24     7     8   ar
    25     8     9   ar
    26     9     1   ar
    27     9     5   ar
    28    24    20   ar
    29    16    19    1
@<TRIPOS>MOLECULE
*****
 27 29 0 0 0
SMALL
GASTEIGER

@<TRIPOS>ATOM
      1 C         142.5792  142.0032  163.1585 C.ar    1  UNL1        0.0615
      2 C         142.1538  141.8205  164.5853 C.ar    1  UNL1        0.0186
      3 C         141.1862  142.7823  165.2084 C.ar    1  UNL1        0.0398
      4 C         140.6437  143.9269  164.4048 C.ar    1  UNL1        0.1568
      5 C         141.0691  144.1096  162.9781 C.ar    1  UNL1        0.1242
      6 N         140.7057  145.1357  161.9460 N.ar    1  UNL1       -0.2208
      7 C         141.4489  144.8080  160.6850 C.ar    1  UNL1        0.1659
      8 S         142.2716  143.5794  160.9377 S.2     1  UNL1       -0.0500
      9 C         142.0368  143.1478  162.3549 C.ar    1  UNL1        0.0664
     10 N         143.5469  141.0414  162.5353 N.am    1  UNL1       -0.2581
     11 C         143.0535  139.7443  161.9656 C.2     1  UNL1        0.2298
     12 C         144.0212  138.7825  161.3425 C.3     1  UNL1        0.0952
     13 O         141.5924  139.4094  162.0192 O.2     1  UNL1       -0.2745
     14 C         145.7664  141.6295  163.7510 C.3     1  UNL1        0.0237
     15 C         145.0080  141.3764  162.4818 C.3     1  UNL1        0.0983
     16 N         141.3813  145.5743  159.3973 N.am    1  UNL1       -0.2594
     17 C         140.3484  145.2220  158.3682 C.2     1  UNL1        0.2683
     18 O         139.3830  144.1035  158.6268 O.2     1  UNL1       -0.2681
     19 H         142.0149  146.3084  159.2275 H       1  UNL1        0.1571
     20 C         140.2809  145.9884  157.0805 C.ar    1  UNL1        0.1330
     21 C         139.2893  147.0625  156.7446 C.ar    1  UNL1        0.0458
     22 C         139.5888  147.5531  155.3591 C.ar    1  UNL1        0.1218
     23 N         140.7655  146.7822  154.8386 N.ar    1  UNL1       -0.1675
     24 N         141.1933  145.8151  155.9026 N.ar    1  UNL1       -0.2443
     25 C         142.3333  144.8451  155.8055 C.3     1  UNL1        0.1539
     26 O         139.6760  144.8887  165.0281 O.3     1  UNL1       -0.4699
     27 C         138.2091  144.5756  165.0387 C.3     1  UNL1        0.2525
@<TRIPOS>BOND
     1    14    15    1
     2    15    10    1
     3    10    11   am
     4    11    12    1
     5    11    13    2
     6    10     1    1
     7     1     2   ar
     8     2     3   ar
     9     3     4   ar
    10     4    26    1
    11    26    27    1
    12     4     5   ar
    13     5     6   ar
    14     6     7   ar
    15     7    16    1
    16    16    17   am
    17    17    18    2
    18    17    20    1
    19    20    21   ar
    20    21    22   ar
    21    22    23   ar
    22    23    24   ar
    23    24    25    1
    24     7     8   ar
    25     8     9   ar
    26     9     1   ar
    27     9     5   ar
    28    24    20   ar
    29    16    19    1
@<TRIPOS>MOLECULE
*****
 27 29 0 0 0
SMALL
GASTEIGER

@<TRIPOS>ATOM
      1 C         140.1758  142.5609  165.4370 C.ar    1  UNL1        0.0615
      2 C         139.4020  143.7740  165.8610 C.ar    1  UNL1        0.0186
      3 C         138.9019  144.7425  164.8307 C.ar    1  UNL1        0.0398
      4 C         139.1754  144.4981  163.3762 C.ar    1  UNL1        0.1568
      5 C         139.9492  143.2850  162.9522 C.ar    1  UNL1        0.1242
      6 N         140.3697  142.7841  161.6023 N.ar    1  UNL1       -0.2208
      7 C         141.1297  141.5059  161.7984 C.ar    1  UNL1        0.1659
      8 S         141.1790  141.2169  163.2695 S.2     1  UNL1       -0.0500
      9 C         140.4493  142.3165  163.9826 C.ar    1  UNL1        0.0664
     10 N         140.6759  141.5924  166.4674 N.am    1  UNL1       -0.2581
     11 C         142.1226  141.5999  166.8642 C.2     1  UNL1        0.2298
     12 C         142.6227  140.6314  167.8945 C.3     1  UNL1        0.0952
     13 O         143.0688  142.5761  166.2304 O.2     1  UNL1       -0.2745
     14 C         139.1311  139.5118  166.2812 C.3     1  UNL1        0.0237
     15 C         139.7295  140.6162  167.1010 C.3     1  UNL1        0.0983
     16 N         141.7344  140.6644  160.7139 N.am    1  UNL1       -0.2594
     17 C         140.9308  139.5686  160.0787 C.2     1  UNL1        0.2683
     18 O         139.5225  139.3143  160.5279 O.2     1  UNL1       -0.2681
     19 H         142.6588  140.8312  160.4190 H       1  UNL1        0.1571
     20 C         141.5356  138.7271  158.9941 C.ar    1  UNL1        0.1330
     21 C         141.1299  138.7250  157.5501 C.ar    1  UNL1        0.0458
     22 C         141.9958  137.7366  156.8268 C.ar    1  UNL1        0.1218
     23 N         142.9368  137.1278  157.8238 N.ar    1  UNL1       -0.1675
     24 N         142.6523  137.7401  159.1633 N.ar    1  UNL1       -0.2443
     25 C         143.3603  137.4212  160.4467 C.3     1  UNL1        0.1539
     26 O         138.6752  145.4667  162.3458 O.3     1  UNL1       -0.4699
     27 C         139.6408  146.3601  161.6251 C.3     1  UNL1        0.2525
@<TRIPOS>BOND
     1    14    15    1
     2    15    10    1
     3    10    11   am
     4    11    12    1
     5    11    13    2
     6    10     1    1
     7     1     2   ar
     8     2     3   ar
     9     3     4   ar
    10     4    26    1
    11    26    27    1
    12     4     5   ar
    13     5     6   ar
    14     6     7   ar
    15     7    16    1
    16    16    17   am
    17    17    18    2
    18    17    20    1
    19    20    21   ar
    20    21    22   ar
    21    22    23   ar
    22    23    24   ar
    23    24    25    1
    24     7     8   ar
    25     8     9   ar
    26     9     1   ar
    27     9     5   ar
    28    24    20   ar
    29    16    19    1
@<TRIPOS>MOLECULE
*****
 27 29 0 0 0
SMALL
GASTEIGER

@<TRIPOS>ATOM
      1 C         140.6268  142.1168  161.8167 C.ar    1  UNL1        0.0615
      2 C         140.7499  141.3057  160.5609 C.ar    1  UNL1        0.0186
      3 C         141.4303  139.9694  160.5948 C.ar    1  UNL1        0.0398
      4 C         141.9877  139.4441  161.8846 C.ar    1  UNL1        0.1568
      5 C         141.8647  140.2552  163.1403 C.ar    1  UNL1        0.1242
      6 N         142.3135  139.9991  164.5485 N.ar    1  UNL1       -0.2208
      7 C         141.9104  141.1773  165.3849 C.ar    1  UNL1        0.1659
      8 S         141.2125  142.1614  164.4936 S.2     1  UNL1       -0.0500
      9 C         141.1842  141.5915  163.1064 C.ar    1  UNL1        0.0664
     10 N         139.9463  143.4532  161.7827 N.am    1  UNL1       -0.2581
     11 C         140.7118  144.6742  161.3664 C.2     1  UNL1        0.2298
     12 C         140.0314  146.0105  161.3324 C.3     1  UNL1        0.0952
     13 O         142.1576  144.5587  160.9840 O.2     1  UNL1       -0.2745
     14 C         137.7205  142.3398  162.5281 C.3     1  UNL1        0.0237
     15 C         138.5005  143.5685  162.1651 C.3     1  UNL1        0.0983
     16 N         142.1611  141.3423  166.8545 N.am    1  UNL1       -0.2594
     17 C         141.0754  141.0280  167.8406 C.2     1  UNL1        0.2683
     18 O         139.7388  140.5487  167.3571 O.2     1  UNL1       -0.2681
     19 H         143.0384  141.6569  167.1719 H       1  UNL1        0.1571
     20 C         141.3262  141.1931  169.3103 C.ar    1  UNL1        0.1330
     21 C         141.9288  140.1664  170.2226 C.ar    1  UNL1        0.0458
     22 C         141.9935  140.7527  171.6018 C.ar    1  UNL1        0.1218
     23 N         141.4309  142.1418  171.5418 N.ar    1  UNL1       -0.1675
     24 N         141.0185  142.4140  170.1255 N.ar    1  UNL1       -0.2443
     25 C         140.4058  143.6842  169.6142 C.3     1  UNL1        0.1539
     26 O         142.6682  138.1077  161.9184 O.3     1  UNL1       -0.4699
     27 C         143.9547  137.9021  161.1751 C.3     1  UNL1        0.2525
@<TRIPOS>BOND
     1    14    15    1
     2    15    10    1
     3    10    11   am
     4    11    12    1
     5    11    13    2
     6    10     1    1
     7     1     2   ar
     8     2     3   ar
     9     3     4   ar
    10     4    26    1
    11    26    27    1
    12     4     5   ar
    13     5     6   ar
    14     6     7   ar
    15     7    16    1
    16    16    17   am
    17    17    18    2
    18    17    20    1
    19    20    21   ar
    20    21    22   ar
    21    22    23   ar
    22    23    24   ar
    23    24    25    1
    24     7     8   ar
    25     8     9   ar
    26     9     1   ar
    27     9     5   ar
    28    24    20   ar
    29    16    19    1
@<TRIPOS>MOLECULE
*****
 27 29 0 0 0
SMALL
GASTEIGER

@<TRIPOS>ATOM
      1 C         139.2225  141.3402  164.1454 C.ar    1  UNL1        0.0615
      2 C         138.1550  142.2808  164.6206 C.ar    1  UNL1        0.0186
      3 C         137.9481  143.5935  163.9252 C.ar    1  UNL1        0.0398
      4 C         138.8087  143.9658  162.7543 C.ar    1  UNL1        0.1568
      5 C         139.8762  143.0253  162.2790 C.ar    1  UNL1        0.1242
      6 N         140.8709  143.1191  161.1603 N.ar    1  UNL1       -0.2208
      7 C         141.6926  141.8642  161.1643 C.ar    1  UNL1        0.1659
      8 S         141.2057  140.9949  162.2856 S.2     1  UNL1       -0.0500
      9 C         140.0831  141.7125  162.9746 C.ar    1  UNL1        0.0664
     10 N         139.4294  140.0275  164.8409 N.am    1  UNL1       -0.2581
     11 C         138.8563  138.7704  164.2563 C.2     1  UNL1        0.2298
     12 C         139.0632  137.4577  164.9518 C.3     1  UNL1        0.0952
     13 O         138.0764  138.8264  162.9763 O.2     1  UNL1       -0.2745
     14 C         139.5119  140.1735  167.4336 C.3     1  UNL1        0.0237
     15 C         140.2094  139.9716  166.1210 C.3     1  UNL1        0.0983
     16 N         142.8058  141.5361  160.2140 N.am    1  UNL1       -0.2594
     17 C         142.5062  141.2853  158.7658 C.2     1  UNL1        0.2683
     18 O         141.0934  141.3625  158.2679 O.2     1  UNL1       -0.2681
     19 H         143.7331  141.4854  160.5407 H       1  UNL1        0.1571
     20 C         143.6194  140.9572  157.8155 C.ar    1  UNL1        0.1330
     21 C         144.7675  141.8542  157.4591 C.ar    1  UNL1        0.0458
     22 C         145.6376  141.1258  156.4781 C.ar    1  UNL1        0.1218
     23 N         145.0274  139.7786  156.2282 N.ar    1  UNL1       -0.1675
     24 N         143.7799  139.6744  157.0548 N.ar    1  UNL1       -0.2443
     25 C         142.8554  138.4945  157.1108 C.3     1  UNL1        0.1539
     26 O         138.6017  145.2787  162.0588 O.3     1  UNL1       -0.4699
     27 C         139.7404  146.2464  161.9291 C.3     1  UNL1        0.2525
@<TRIPOS>BOND
     1    14    15    1
     2    15    10    1
     3    10    11   am
     4    11    12    1
     5    11    13    2
     6    10     1    1
     7     1     2   ar
     8     2     3   ar
     9     3     4   ar
    10     4    26    1
    11    26    27    1
    12     4     5   ar
    13     5     6   ar
    14     6     7   ar
    15     7    16    1
    16    16    17   am
    17    17    18    2
    18    17    20    1
    19    20    21   ar
    20    21    22   ar
    21    22    23   ar
    22    23    24   ar
    23    24    25    1
    24     7     8   ar
    25     8     9   ar
    26     9     1   ar
    27     9     5   ar
    28    24    20   ar
    29    16    19    1
@<TRIPOS>MOLECULE
*****
 27 29 0 0 0
SMALL
GASTEIGER

@<TRIPOS>ATOM
      1 C         140.6619  141.2453  168.7655 C.ar    1  UNL1        0.0615
      2 C         139.7095  140.4743  169.6306 C.ar    1  UNL1        0.0186
      3 C         138.6281  139.6462  169.0023 C.ar    1  UNL1        0.0398
      4 C         138.4991  139.5890  167.5089 C.ar    1  UNL1        0.1568
      5 C         139.4515  140.3601  166.6439 C.ar    1  UNL1        0.1242
      6 N         139.5694  140.4962  165.1547 N.ar    1  UNL1       -0.2208
      7 C         140.7237  141.4084  164.8627 C.ar    1  UNL1        0.1659
      8 S         141.3192  141.8362  166.1713 S.2     1  UNL1       -0.0500
      9 C         140.5329  141.1882  167.2721 C.ar    1  UNL1        0.0664
     10 N         141.7433  142.0735  169.3938 N.am    1  UNL1       -0.2581
     11 C         143.1335  141.5235  169.5165 C.2     1  UNL1        0.2298
     12 C         144.2149  142.3516  170.1447 C.3     1  UNL1        0.0952
     13 O         143.4421  140.1454  169.0109 O.2     1  UNL1       -0.2745
     14 C         140.0879  144.0604  169.6425 C.3     1  UNL1        0.0237
     15 C         141.4346  143.4516  169.8993 C.3     1  UNL1        0.0983
     16 N         141.1992  141.8206  163.5010 N.am    1  UNL1       -0.2594
     17 C         140.7112  143.1018  162.8923 C.2     1  UNL1        0.2683
     18 O         139.7479  143.9707  163.6451 O.2     1  UNL1       -0.2681
     19 H         141.8314  141.2503  163.0069 H       1  UNL1        0.1571
     20 C         141.1867  143.5139  161.5306 C.ar    1  UNL1        0.1330
     21 C         140.3239  143.7257  160.3221 C.ar    1  UNL1        0.0458
     22 C         141.2125  144.1293  159.1831 C.ar    1  UNL1        0.1218
     23 N         142.6246  144.1669  159.6875 N.ar    1  UNL1       -0.1675
     24 N         142.6086  143.7865  161.1384 N.ar    1  UNL1       -0.2443
     25 C         143.8047  143.6949  162.0390 C.3     1  UNL1        0.1539
     26 O         137.4176  138.7608  166.8807 O.3     1  UNL1       -0.4699
     27 C         136.8184  137.6118  167.6362 C.3     1  UNL1        0.2525
@<TRIPOS>BOND
     1    14    15    1
     2    15    10    1
     3    10    11   am
     4    11    12    1
     5    11    13    2
     6    10     1    1
     7     1     2   ar
     8     2     3   ar
     9     3     4   ar
    10     4    26    1
    11    26    27    1
    12     4     5   ar
    13     5     6   ar
    14     6     7   ar
    15     7    16    1
    16    16    17   am
    17    17    18    2
    18    17    20    1
    19    20    21   ar
    20    21    22   ar
    21    22    23   ar
    22    23    24   ar
    23    24    25    1
    24     7     8   ar
    25     8     9   ar
    26     9     1   ar
    27     9     5   ar
    28    24    20   ar
    29    16    19    1
@<TRIPOS>MOLECULE
*****
 27 29 0 0 0
SMALL
GASTEIGER

@<TRIPOS>ATOM
      1 C         140.5952  142.2669  163.1409 C.ar    1  UNL1        0.0615
      2 C         141.5567  141.2807  163.7349 C.ar    1  UNL1        0.0186
      3 C         142.6310  140.6737  162.8821 C.ar    1  UNL1        0.0398
      4 C         142.7438  141.0529  161.4352 C.ar    1  UNL1        0.1568
      5 C         141.7823  142.0391  160.8412 C.ar    1  UNL1        0.1242
      6 N         141.6483  142.6013  159.4570 N.ar    1  UNL1       -0.2208
      7 C         140.4912  143.5557  159.4544 C.ar    1  UNL1        0.1659
      8 S         139.9100  143.5835  160.8370 S.2     1  UNL1       -0.0500
      9 C         140.7080  142.6462  161.6941 C.ar    1  UNL1        0.0664
     10 N         139.5209  142.8740  163.9938 N.am    1  UNL1       -0.2581
     11 C         139.6903  144.2612  164.5390 C.2     1  UNL1        0.2298
     12 C         138.6161  144.8682  165.3919 C.3     1  UNL1        0.0952
     13 O         140.9341  145.0411  164.2313 O.2     1  UNL1       -0.2745
     14 C         137.2925  141.7917  163.2111 C.3     1  UNL1        0.0237
     15 C         138.2772  142.0939  164.3015 C.3     1  UNL1        0.0983
     16 N         140.0012  144.3441  158.2761 N.am    1  UNL1       -0.2594
     17 C         140.8249  145.4752  157.7355 C.2     1  UNL1        0.2683
     18 O         142.1386  145.8179  158.3732 O.2     1  UNL1       -0.2681
     19 H         139.1390  144.1192  157.8575 H       1  UNL1        0.1571
     20 C         140.3348  146.2635  156.5572 C.ar    1  UNL1        0.1330
     21 C         139.2132  147.2593  156.5675 C.ar    1  UNL1        0.0458
     22 C         139.0656  147.8056  155.1783 C.ar    1  UNL1        0.1218
     23 N         140.0959  147.1474  154.3094 N.ar    1  UNL1       -0.1675
     24 N         140.8804  146.1942  155.1617 N.ar    1  UNL1       -0.2443
     25 C         142.0118  145.3245  154.6994 C.3     1  UNL1        0.1539
     26 O         143.8182  140.4458  160.5824 O.3     1  UNL1       -0.4699
     27 C         143.4657  139.4096  159.5568 C.3     1  UNL1        0.2525
@<TRIPOS>BOND
     1    14    15    1
     2    15    10    1
     3    10    11   am
     4    11    12    1
     5    11    13    2
     6    10     1    1
     7     1     2   ar
     8     2     3   ar
     9     3     4   ar
    10     4    26    1
    11    26    27    1
    12     4     5   ar
    13     5     6   ar
    14     6     7   ar
    15     7    16    1
    16    16    17   am
    17    17    18    2
    18    17    20    1
    19    20    21   ar
    20    21    22   ar
    21    22    23   ar
    22    23    24   ar
    23    24    25    1
    24     7     8   ar
    25     8     9   ar
    26     9     1   ar
    27     9     5   ar
    28    24    20   ar
    29    16    19    1
@<TRIPOS>MOLECULE
*****
 27 29 0 0 0
SMALL
GASTEIGER

@<TRIPOS>ATOM
      1 C         140.4409  142.9747  163.7410 C.ar    1  UNL1        0.0615
      2 C         139.7471  142.8006  165.0594 C.ar    1  UNL1        0.0186
      3 C         139.5827  141.4296  165.6451 C.ar    1  UNL1        0.0398
      4 C         140.1120  140.2325  164.9124 C.ar    1  UNL1        0.1568
      5 C         140.8058  140.4065  163.5939 C.ar    1  UNL1        0.1242
      6 N         141.4265  139.4211  162.6487 N.ar    1  UNL1       -0.2208
      7 C         141.9747  140.1832  161.4787 C.ar    1  UNL1        0.1659
      8 S         141.6927  141.6396  161.7009 S.2     1  UNL1       -0.0500
      9 C         140.9702  141.7776  163.0082 C.ar    1  UNL1        0.0664
     10 N         140.6054  144.3458  163.1553 N.am    1  UNL1       -0.2581
     11 C         139.4848  144.9678  162.3758 C.2     1  UNL1        0.2298
     12 C         139.6492  146.3388  161.7901 C.3     1  UNL1        0.0952
     13 O         138.1998  144.2185  162.1822 O.2     1  UNL1       -0.2745
     14 C         142.9689  144.5214  164.2196 C.3     1  UNL1        0.0237
     15 C         141.8904  145.0949  163.3489 C.3     1  UNL1        0.0983
     16 N         142.6808  139.5926  160.2944 N.am    1  UNL1       -0.2594
     17 C         141.8882  139.0545  159.1402 C.2     1  UNL1        0.2683
     18 O         140.3895  139.1071  159.1701 O.2     1  UNL1       -0.2681
     19 H         143.6645  139.5580  160.2747 H       1  UNL1        0.1571
     20 C         142.5945  138.4639  157.9559 C.ar    1  UNL1        0.1330
     21 C         142.5411  137.0289  157.5230 C.ar    1  UNL1        0.0458
     22 C         143.3918  136.8828  156.2962 C.ar    1  UNL1        0.1218
     23 N         143.9710  138.2276  155.9709 N.ar    1  UNL1       -0.1675
     24 N         143.4782  139.2049  156.9968 N.ar    1  UNL1       -0.2443
     25 C         143.8108  140.6665  157.0534 C.3     1  UNL1        0.1539
     26 O         139.9475  138.8614  165.4982 O.3     1  UNL1       -0.4699
     27 C         138.9394  137.9140  164.9183 C.3     1  UNL1        0.2525
@<TRIPOS>BOND
     1    14    15    1
     2    15    10    1
     3    10    11   am
     4    11    12    1
     5    11    13    2
     6    10     1    1
     7     1     2   ar
     8     2     3   ar
     9     3     4   ar
    10     4    26    1
    11    26    27    1
    12     4     5   ar
    13     5     6   ar
    14     6     7   ar
    15     7    16    1
    16    16    17   am
    17    17    18    2
    18    17    20    1
    19    20    21   ar
    20    21    22   ar
    21    22    23   ar
    22    23    24   ar
    23    24    25    1
    24     7     8   ar
    25     8     9   ar
    26     9     1   ar
    27     9     5   ar
    28    24    20   ar
    29    16    19    1
