@<TRIPOS>MOLECULE
*****
 31 33 0 0 0
SMALL
GASTEIGER

@<TRIPOS>ATOM
      1 N         145.4948  142.1056  162.1096 N.3     1  UNL1       -0.2972
      2 H         146.0683  141.6892  161.3760 H       1  UNL1        0.1233
      3 C         145.8418  141.7178  164.1661 C.3     1  UNL1        0.0161
      4 C         145.1328  140.9998  163.0563 C.3     1  UNL1        0.0461
      5 C         144.4239  140.2817  161.9464 C.3     1  UNL1        0.0161
      6 C         144.7708  139.8939  164.0029 C.3     1  UNL1        0.0408
      7 C         143.4105  139.8623  164.6342 C.ar    1  UNL1       -0.0209
      8 C         143.0032  140.9419  165.5927 C.ar    1  UNL1       -0.0042
      9 C         141.6429  140.9103  166.2240 C.ar    1  UNL1       -0.0003
     10 C         140.6898  139.7992  165.8968 C.ar    1  UNL1       -0.0000
     11 C         139.3295  139.7676  166.5281 C.ar    1  UNL1       -0.0000
     12 C         138.3765  138.6565  166.2009 C.ar    1  UNL1       -0.0000
     13 C         138.7837  137.5769  165.2424 C.ar    1  UNL1       -0.0000
     14 C         140.1440  137.6085  164.6111 C.ar    1  UNL1       -0.0000
     15 C         141.0971  138.7196  164.9383 C.ar    1  UNL1       -0.0003
     16 C         142.4574  138.7512  164.3070 C.ar    1  UNL1       -0.0042
     17 C         144.4151  142.8887  161.4232 C.3     1  UNL1        0.1020
     18 C         143.5834  143.8628  162.2038 C.3     1  UNL1        0.1697
     19 O         144.1398  145.2105  162.5561 O.3     1  UNL1       -0.3793
     20 H         145.0412  145.2896  162.2065 H       1  UNL1        0.2106
     21 C         142.1952  143.4892  162.6320 C.3     1  UNL1        0.2358
     22 O         141.7337  142.0662  162.5218 O.3     1  UNL1       -0.4721
     23 C         140.3052  141.7161  162.8164 C.ar    1  UNL1        0.1490
     24 C         139.4855  142.5990  163.7099 C.ar    1  UNL1        0.0377
     25 C         138.0571  142.2489  164.0045 C.ar    1  UNL1        0.0040
     26 C         137.4483  141.0158  163.4056 C.ar    1  UNL1        0.0123
     27 C         138.2679  140.1328  162.5121 C.ar    1  UNL1        0.0702
     28 CL        137.6591  138.8996  161.9131 Cl      1  UNL1       -0.0814
     29 C         139.6964  140.4829  162.2175 C.ar    1  UNL1        0.1128
     30 C         140.5161  139.5999  161.3239 C.1     1  UNL1        0.1043
     31 N         141.3358  138.7169  160.4304 N.1     1  UNL1       -0.1907
@<TRIPOS>BOND
     1     3     4    1
     2     4     5    1
     3     4     6    1
     4     6     7    1
     5     7     8   ar
     6     8     9   ar
     7     9    10   ar
     8    10    11   ar
     9    11    12   ar
    10    12    13   ar
    11    13    14   ar
    12    14    15   ar
    13    15    16   ar
    14     4     1    1
    15     1    17    1
    16    17    18    1
    17    18    19    1
    18    18    21    1
    19    21    22    1
    20    22    23    1
    21    23    24   ar
    22    24    25   ar
    23    25    26   ar
    24    26    27   ar
    25    27    28    1
    26    27    29   ar
    27    29    30    1
    28    30    31    3
    29    16     7   ar
    30    29    23   ar
    31    15    10   ar
    32     1     2    1
    33    19    20    1
@<TRIPOS>MOLECULE
*****
 31 33 0 0 0
SMALL
GASTEIGER

@<TRIPOS>ATOM
      1 N         141.5465  137.0987  162.5446 N.3     1  UNL1       -0.2972
      2 H         141.3708  136.1683  162.1653 H       1  UNL1        0.1233
      3 C         140.7798  137.2367  164.5177 C.3     1  UNL1        0.0161
      4 C         140.2579  137.5694  163.1513 C.3     1  UNL1        0.0461
      5 C         139.7360  137.9021  161.7850 C.3     1  UNL1        0.0161
      6 C         138.9694  138.0401  163.7581 C.3     1  UNL1        0.0408
      7 C         138.6858  139.5087  163.8708 C.ar    1  UNL1       -0.0209
      8 C         137.7020  140.1560  162.9417 C.ar    1  UNL1       -0.0042
      9 C         137.4184  141.6246  163.0543 C.ar    1  UNL1       -0.0003
     10 C         138.1187  142.4460  164.0960 C.ar    1  UNL1       -0.0000
     11 C         137.8351  143.9146  164.2086 C.ar    1  UNL1       -0.0000
     12 C         138.5353  144.7360  165.2503 C.ar    1  UNL1       -0.0000
     13 C         139.5191  144.0887  166.1794 C.ar    1  UNL1       -0.0000
     14 C         139.8027  142.6201  166.0667 C.ar    1  UNL1       -0.0000
     15 C         139.1025  141.7988  165.0251 C.ar    1  UNL1       -0.0003
     16 C         139.3861  140.3301  164.9124 C.ar    1  UNL1       -0.0042
     17 C         142.1965  137.8958  161.4526 C.3     1  UNL1        0.1020
     18 C         143.5610  138.4823  161.6628 C.3     1  UNL1        0.1697
     19 O         144.7509  137.8773  160.9784 O.3     1  UNL1       -0.3793
     20 H         144.4656  137.1211  160.4421 H       1  UNL1        0.2106
     21 C         143.7357  139.6737  162.5572 C.3     1  UNL1        0.2358
     22 O         142.5519  140.2549  163.2720 O.3     1  UNL1       -0.4721
     23 C         141.9071  141.5083  162.7588 C.ar    1  UNL1        0.1490
     24 C         140.9824  141.4473  161.5794 C.ar    1  UNL1        0.0377
     25 C         140.3376  142.7006  161.0663 C.ar    1  UNL1        0.0040
     26 C         140.6176  144.0150  161.7327 C.ar    1  UNL1        0.0123
     27 C         141.5423  144.0760  162.9121 C.ar    1  UNL1        0.0702
     28 CL        141.8223  145.3904  163.5785 Cl      1  UNL1       -0.0814
     29 C         142.1871  142.8227  163.4252 C.ar    1  UNL1        0.1128
     30 C         143.1119  142.8836  164.6047 C.1     1  UNL1        0.1043
     31 N         144.0367  142.9447  165.7841 N.1     1  UNL1       -0.1907
@<TRIPOS>BOND
     1     3     4    1
     2     4     5    1
     3     4     6    1
     4     6     7    1
     5     7     8   ar
     6     8     9   ar
     7     9    10   ar
     8    10    11   ar
     9    11    12   ar
    10    12    13   ar
    11    13    14   ar
    12    14    15   ar
    13    15    16   ar
    14     4     1    1
    15     1    17    1
    16    17    18    1
    17    18    19    1
    18    18    21    1
    19    21    22    1
    20    22    23    1
    21    23    24   ar
    22    24    25   ar
    23    25    26   ar
    24    26    27   ar
    25    27    28    1
    26    27    29   ar
    27    29    30    1
    28    30    31    3
    29    16     7   ar
    30    29    23   ar
    31    15    10   ar
    32     1     2    1
    33    19    20    1
@<TRIPOS>MOLECULE
*****
 31 33 0 0 0
SMALL
GASTEIGER

@<TRIPOS>ATOM
      1 N         137.9725  144.1395  162.0796 N.3     1  UNL1       -0.2972
      2 H         137.5319  144.7174  161.3639 H       1  UNL1        0.1233
      3 C         139.6692  144.7726  160.9748 C.3     1  UNL1        0.0161
      4 C         139.2774  144.7950  162.4226 C.3     1  UNL1        0.0461
      5 C         138.8856  144.8175  163.8703 C.3     1  UNL1        0.0161
      6 C         140.5823  145.4505  162.7656 C.3     1  UNL1        0.0408
      7 C         141.7625  144.6120  163.1581 C.ar    1  UNL1       -0.0209
      8 C         142.8323  145.1878  164.0378 C.ar    1  UNL1       -0.0042
      9 C         144.0125  144.3494  164.4303 C.ar    1  UNL1       -0.0003
     10 C         144.1229  142.9350  163.9431 C.ar    1  UNL1       -0.0000
     11 C         145.3031  142.0965  164.3356 C.ar    1  UNL1       -0.0000
     12 C         145.4135  140.6822  163.8484 C.ar    1  UNL1       -0.0000
     13 C         144.3437  140.1063  162.9686 C.ar    1  UNL1       -0.0000
     14 C         143.1635  140.9448  162.5761 C.ar    1  UNL1       -0.0000
     15 C         143.0531  142.3591  163.0634 C.ar    1  UNL1       -0.0003
     16 C         141.8729  143.1976  162.6709 C.ar    1  UNL1       -0.0042
     17 C         137.9530  142.7289  161.5698 C.3     1  UNL1        0.1020
     18 C         137.7558  141.5890  162.5246 C.3     1  UNL1        0.1697
     19 O         136.4346  141.4056  163.2110 O.3     1  UNL1       -0.3793
     20 H         135.8237  142.1041  162.9283 H       1  UNL1        0.2106
     21 C         138.8796  140.6325  162.7931 C.3     1  UNL1        0.2358
     22 O         139.0453  140.0343  164.1586 O.3     1  UNL1       -0.4721
     23 C         140.2036  140.4416  165.0203 C.ar    1  UNL1        0.1490
     24 C         140.2561  141.8231  165.6023 C.ar    1  UNL1        0.0377
     25 C         141.4144  142.2304  166.4639 C.ar    1  UNL1        0.0040
     26 C         142.5201  141.2561  166.7436 C.ar    1  UNL1        0.0123
     27 C         142.4676  139.8747  166.1616 C.ar    1  UNL1        0.0702
     28 CL        143.5734  138.9005  166.4413 Cl      1  UNL1       -0.0814
     29 C         141.3094  139.4674  165.3000 C.ar    1  UNL1        0.1128
     30 C         141.2568  138.0859  164.7180 C.1     1  UNL1        0.1043
     31 N         141.2042  136.7044  164.1360 N.1     1  UNL1       -0.1907
@<TRIPOS>BOND
     1     3     4    1
     2     4     5    1
     3     4     6    1
     4     6     7    1
     5     7     8   ar
     6     8     9   ar
     7     9    10   ar
     8    10    11   ar
     9    11    12   ar
    10    12    13   ar
    11    13    14   ar
    12    14    15   ar
    13    15    16   ar
    14     4     1    1
    15     1    17    1
    16    17    18    1
    17    18    19    1
    18    18    21    1
    19    21    22    1
    20    22    23    1
    21    23    24   ar
    22    24    25   ar
    23    25    26   ar
    24    26    27   ar
    25    27    28    1
    26    27    29   ar
    27    29    30    1
    28    30    31    3
    29    16     7   ar
    30    29    23   ar
    31    15    10   ar
    32     1     2    1
    33    19    20    1
@<TRIPOS>MOLECULE
*****
 31 33 0 0 0
SMALL
GASTEIGER

@<TRIPOS>ATOM
      1 N         141.4516  136.9584  162.4885 N.3     1  UNL1       -0.2972
      2 H         141.0241  136.1822  161.9834 H       1  UNL1        0.1233
      3 C         141.1736  137.0037  164.5911 C.3     1  UNL1        0.0161
      4 C         140.4013  137.5075  163.4080 C.3     1  UNL1        0.0461
      5 C         139.6289  138.0113  162.2248 C.3     1  UNL1        0.0161
      6 C         139.3510  138.0566  164.3274 C.3     1  UNL1        0.0408
      7 C         139.4124  139.4901  164.7651 C.ar    1  UNL1       -0.0209
      8 C         140.3834  139.9084  165.8291 C.ar    1  UNL1       -0.0042
      9 C         140.4449  141.3418  166.2668 C.ar    1  UNL1       -0.0003
     10 C         139.5354  142.3569  165.6404 C.ar    1  UNL1       -0.0000
     11 C         139.5969  143.7903  166.0781 C.ar    1  UNL1       -0.0000
     12 C         138.6874  144.8054  165.4517 C.ar    1  UNL1       -0.0000
     13 C         137.7164  144.3871  164.3877 C.ar    1  UNL1       -0.0000
     14 C         137.6549  142.9537  163.9500 C.ar    1  UNL1       -0.0000
     15 C         138.5644  141.9386  164.5764 C.ar    1  UNL1       -0.0003
     16 C         138.5029  140.5052  164.1387 C.ar    1  UNL1       -0.0042
     17 C         142.0869  137.8467  161.4602 C.3     1  UNL1        0.1020
     18 C         143.4484  138.4256  161.7076 C.3     1  UNL1        0.1697
     19 O         144.6735  137.6030  161.4381 O.3     1  UNL1       -0.3793
     20 H         144.4103  136.7286  161.1110 H       1  UNL1        0.2106
     21 C         143.5848  139.8271  162.2244 C.3     1  UNL1        0.2358
     22 O         142.5096  140.4157  163.0890 O.3     1  UNL1       -0.4721
     23 C         141.8054  141.6692  162.6611 C.ar    1  UNL1        0.1490
     24 C         140.7765  141.6165  161.5709 C.ar    1  UNL1        0.0377
     25 C         140.0724  142.8699  161.1431 C.ar    1  UNL1        0.0040
     26 C         140.3971  144.1760  161.8055 C.ar    1  UNL1        0.0123
     27 C         141.4260  144.2286  162.8957 C.ar    1  UNL1        0.0702
     28 CL        141.7508  145.5347  163.5581 Cl      1  UNL1       -0.0814
     29 C         142.1301  142.9752  163.3235 C.ar    1  UNL1        0.1128
     30 C         143.1591  143.0278  164.4138 C.1     1  UNL1        0.1043
     31 N         144.1880  143.0804  165.5040 N.1     1  UNL1       -0.1907
@<TRIPOS>BOND
     1     3     4    1
     2     4     5    1
     3     4     6    1
     4     6     7    1
     5     7     8   ar
     6     8     9   ar
     7     9    10   ar
     8    10    11   ar
     9    11    12   ar
    10    12    13   ar
    11    13    14   ar
    12    14    15   ar
    13    15    16   ar
    14     4     1    1
    15     1    17    1
    16    17    18    1
    17    18    19    1
    18    18    21    1
    19    21    22    1
    20    22    23    1
    21    23    24   ar
    22    24    25   ar
    23    25    26   ar
    24    26    27   ar
    25    27    28    1
    26    27    29   ar
    27    29    30    1
    28    30    31    3
    29    16     7   ar
    30    29    23   ar
    31    15    10   ar
    32     1     2    1
    33    19    20    1
@<TRIPOS>MOLECULE
*****
 31 33 0 0 0
SMALL
GASTEIGER

@<TRIPOS>ATOM
      1 N         141.5763  137.1597  162.1849 N.3     1  UNL1       -0.2972
      2 H         141.3413  136.2788  161.7275 H       1  UNL1        0.1233
      3 C         141.0485  137.2221  164.2386 C.3     1  UNL1        0.0161
      4 C         140.3617  137.5851  162.9554 C.3     1  UNL1        0.0461
      5 C         139.6748  137.9480  161.6723 C.3     1  UNL1        0.0161
      6 C         139.1470  138.0104  163.7259 C.3     1  UNL1        0.0408
      7 C         138.8070  139.4664  163.8462 C.ar    1  UNL1       -0.0209
      8 C         137.7368  140.0608  162.9793 C.ar    1  UNL1       -0.0042
      9 C         137.3968  141.5167  163.0996 C.ar    1  UNL1       -0.0003
     10 C         138.1269  142.3785  164.0867 C.ar    1  UNL1       -0.0000
     11 C         137.7869  143.8344  164.2070 C.ar    1  UNL1       -0.0000
     12 C         138.5170  144.6960  165.1941 C.ar    1  UNL1       -0.0000
     13 C         139.5872  144.1017  166.0610 C.ar    1  UNL1       -0.0000
     14 C         139.9272  142.6457  165.9408 C.ar    1  UNL1       -0.0000
     15 C         139.1971  141.7841  164.9536 C.ar    1  UNL1       -0.0003
     16 C         139.5371  140.3281  164.8334 C.ar    1  UNL1       -0.0042
     17 C         142.1463  138.0581  161.1275 C.3     1  UNL1        0.1020
     18 C         143.1026  139.1497  161.5065 C.3     1  UNL1        0.1697
     19 O         144.3935  138.8115  162.1917 O.3     1  UNL1       -0.3793
     20 H         144.4528  137.8511  162.3138 H       1  UNL1        0.2106
     21 C         142.7682  140.5796  161.2004 C.3     1  UNL1        0.2358
     22 O         141.5786  141.2263  161.8456 O.3     1  UNL1       -0.4721
     23 C         141.6937  142.6091  162.4154 C.ar    1  UNL1        0.1490
     24 C         142.7251  142.9050  163.4636 C.ar    1  UNL1        0.0377
     25 C         142.8402  144.2878  164.0333 C.ar    1  UNL1        0.0040
     26 C         141.9239  145.3747  163.5547 C.ar    1  UNL1        0.0123
     27 C         140.8926  145.0789  162.5065 C.ar    1  UNL1        0.0702
     28 CL        139.9763  146.1659  162.0280 Cl      1  UNL1       -0.0814
     29 C         140.7775  143.6961  161.9369 C.ar    1  UNL1        0.1128
     30 C         139.7461  143.4002  160.8886 C.1     1  UNL1        0.1043
     31 N         138.7147  143.1043  159.8404 N.1     1  UNL1       -0.1907
@<TRIPOS>BOND
     1     3     4    1
     2     4     5    1
     3     4     6    1
     4     6     7    1
     5     7     8   ar
     6     8     9   ar
     7     9    10   ar
     8    10    11   ar
     9    11    12   ar
    10    12    13   ar
    11    13    14   ar
    12    14    15   ar
    13    15    16   ar
    14     4     1    1
    15     1    17    1
    16    17    18    1
    17    18    19    1
    18    18    21    1
    19    21    22    1
    20    22    23    1
    21    23    24   ar
    22    24    25   ar
    23    25    26   ar
    24    26    27   ar
    25    27    28    1
    26    27    29   ar
    27    29    30    1
    28    30    31    3
    29    16     7   ar
    30    29    23   ar
    31    15    10   ar
    32     1     2    1
    33    19    20    1
@<TRIPOS>MOLECULE
*****
 31 33 0 0 0
SMALL
GASTEIGER

@<TRIPOS>ATOM
      1 N         144.7710  143.8513  162.9216 N.3     1  UNL1       -0.2972
      2 H         144.5984  143.9131  161.9182 H       1  UNL1        0.1233
      3 C         145.1158  142.1046  161.7683 C.3     1  UNL1        0.0161
      4 C         144.9961  142.4016  163.2338 C.3     1  UNL1        0.0461
      5 C         144.8764  142.6985  164.6992 C.3     1  UNL1        0.0161
      6 C         145.2212  140.9518  163.5459 C.3     1  UNL1        0.0408
      7 C         144.0526  140.0560  163.8324 C.ar    1  UNL1       -0.0209
      8 C         144.0628  139.1751  165.0464 C.ar    1  UNL1       -0.0042
      9 C         142.8942  138.2794  165.3329 C.ar    1  UNL1       -0.0003
     10 C         141.7154  138.2646  164.4054 C.ar    1  UNL1       -0.0000
     11 C         140.5469  137.3689  164.6919 C.ar    1  UNL1       -0.0000
     12 C         139.3681  137.3541  163.7644 C.ar    1  UNL1       -0.0000
     13 C         139.3579  138.2351  162.5504 C.ar    1  UNL1       -0.0000
     14 C         140.5265  139.1308  162.2639 C.ar    1  UNL1       -0.0000
     15 C         141.7052  139.1455  163.1914 C.ar    1  UNL1       -0.0003
     16 C         142.8739  140.0413  162.9049 C.ar    1  UNL1       -0.0042
     17 C         143.6621  144.6009  163.5987 C.3     1  UNL1        0.1020
     18 C         142.3421  144.7734  162.9074 C.3     1  UNL1        0.1697
     19 O         142.2991  145.1545  161.4572 O.3     1  UNL1       -0.3793
     20 H         143.2040  145.2493  161.1208 H       1  UNL1        0.2106
     21 C         141.0651  144.5650  163.6662 C.3     1  UNL1        0.2358
     22 O         140.3213  143.2684  163.5408 O.3     1  UNL1       -0.4721
     23 C         140.2872  142.3088  164.6932 C.ar    1  UNL1        0.1490
     24 C         141.4111  142.2893  165.6864 C.ar    1  UNL1        0.0377
     25 C         141.3770  141.3297  166.8388 C.ar    1  UNL1        0.0040
     26 C         140.2190  140.3896  166.9980 C.ar    1  UNL1        0.0123
     27 C         139.0951  140.4092  166.0048 C.ar    1  UNL1        0.0702
     28 CL        137.9372  139.4691  166.1640 Cl      1  UNL1       -0.0814
     29 C         139.1293  141.3687  164.8524 C.ar    1  UNL1        0.1128
     30 C         138.0053  141.3883  163.8591 C.1     1  UNL1        0.1043
     31 N         136.8815  141.4078  162.8659 N.1     1  UNL1       -0.1907
@<TRIPOS>BOND
     1     3     4    1
     2     4     5    1
     3     4     6    1
     4     6     7    1
     5     7     8   ar
     6     8     9   ar
     7     9    10   ar
     8    10    11   ar
     9    11    12   ar
    10    12    13   ar
    11    13    14   ar
    12    14    15   ar
    13    15    16   ar
    14     4     1    1
    15     1    17    1
    16    17    18    1
    17    18    19    1
    18    18    21    1
    19    21    22    1
    20    22    23    1
    21    23    24   ar
    22    24    25   ar
    23    25    26   ar
    24    26    27   ar
    25    27    28    1
    26    27    29   ar
    27    29    30    1
    28    30    31    3
    29    16     7   ar
    30    29    23   ar
    31    15    10   ar
    32     1     2    1
    33    19    20    1
@<TRIPOS>MOLECULE
*****
 31 33 0 0 0
SMALL
GASTEIGER

@<TRIPOS>ATOM
      1 N         140.4233  145.6483  163.0542 N.3     1  UNL1       -0.2972
      2 H         140.1020  146.5459  163.4168 H       1  UNL1        0.1233
      3 C         139.1021  144.8733  164.5219 C.3     1  UNL1        0.0161
      4 C         139.2313  144.7379  163.0336 C.3     1  UNL1        0.0461
      5 C         139.3604  144.6025  161.5453 C.3     1  UNL1        0.0161
      6 C         138.0393  143.8275  163.0130 C.3     1  UNL1        0.0408
      7 C         138.2192  142.3517  163.2121 C.ar    1  UNL1       -0.0209
      8 C         138.5390  141.4704  162.0411 C.ar    1  UNL1       -0.0042
      9 C         138.7189  139.9947  162.2402 C.ar    1  UNL1       -0.0003
     10 C         138.5790  139.4001  163.6102 C.ar    1  UNL1       -0.0000
     11 C         138.7590  137.9243  163.8093 C.ar    1  UNL1       -0.0000
     12 C         138.6191  137.3298  165.1793 C.ar    1  UNL1       -0.0000
     13 C         138.2993  138.2110  166.3502 C.ar    1  UNL1       -0.0000
     14 C         138.1194  139.6868  166.1512 C.ar    1  UNL1       -0.0000
     15 C         138.2592  140.2813  164.7812 C.ar    1  UNL1       -0.0003
     16 C         138.0793  141.7572  164.5821 C.ar    1  UNL1       -0.0042
     17 C         141.6406  145.2721  163.8458 C.3     1  UNL1        0.1020
     18 C         142.8627  144.7588  163.1437 C.3     1  UNL1        0.1697
     19 O         144.0183  145.6782  162.8806 O.3     1  UNL1       -0.3793
     20 H         143.8139  146.5615  163.2255 H       1  UNL1        0.2106
     21 C         142.9292  143.3260  162.7047 C.3     1  UNL1        0.2358
     22 O         141.7758  142.4052  162.9725 O.3     1  UNL1       -0.4721
     23 C         141.7698  141.5491  164.2043 C.ar    1  UNL1        0.1490
     24 C         141.5473  142.1729  165.5501 C.ar    1  UNL1        0.0377
     25 C         141.5414  141.3168  166.7818 C.ar    1  UNL1        0.0040
     26 C         141.7579  139.8370  166.6676 C.ar    1  UNL1        0.0123
     27 C         141.9803  139.2131  165.3218 C.ar    1  UNL1        0.0702
     28 CL        142.1968  137.7333  165.2076 Cl      1  UNL1       -0.0814
     29 C         141.9863  140.0692  164.0901 C.ar    1  UNL1        0.1128
     30 C         142.2088  139.4454  162.7442 C.1     1  UNL1        0.1043
     31 N         142.4312  138.8217  161.3983 N.1     1  UNL1       -0.1907
@<TRIPOS>BOND
     1     3     4    1
     2     4     5    1
     3     4     6    1
     4     6     7    1
     5     7     8   ar
     6     8     9   ar
     7     9    10   ar
     8    10    11   ar
     9    11    12   ar
    10    12    13   ar
    11    13    14   ar
    12    14    15   ar
    13    15    16   ar
    14     4     1    1
    15     1    17    1
    16    17    18    1
    17    18    19    1
    18    18    21    1
    19    21    22    1
    20    22    23    1
    21    23    24   ar
    22    24    25   ar
    23    25    26   ar
    24    26    27   ar
    25    27    28    1
    26    27    29   ar
    27    29    30    1
    28    30    31    3
    29    16     7   ar
    30    29    23   ar
    31    15    10   ar
    32     1     2    1
    33    19    20    1
@<TRIPOS>MOLECULE
*****
 31 33 0 0 0
SMALL
GASTEIGER

@<TRIPOS>ATOM
      1 N         140.9214  144.9664  161.8599 N.3     1  UNL1       -0.2972
      2 H         140.7012  144.2327  161.1865 H       1  UNL1        0.1233
      3 C         142.5723  143.7832  161.2479 C.3     1  UNL1        0.0161
      4 C         142.2592  144.6275  162.4476 C.3     1  UNL1        0.0461
      5 C         141.9461  145.4717  163.6473 C.3     1  UNL1        0.0161
      6 C         143.5970  144.2885  163.0353 C.3     1  UNL1        0.0408
      7 C         143.8478  142.9165  163.5873 C.ar    1  UNL1       -0.0209
      8 C         144.9537  142.0728  163.0259 C.ar    1  UNL1       -0.0042
      9 C         145.2045  140.7008  163.5779 C.ar    1  UNL1       -0.0003
     10 C         144.3494  140.1725  164.6914 C.ar    1  UNL1       -0.0000
     11 C         144.6002  138.8005  165.2434 C.ar    1  UNL1       -0.0000
     12 C         143.7451  138.2722  166.3567 C.ar    1  UNL1       -0.0000
     13 C         142.6392  139.1159  166.9181 C.ar    1  UNL1       -0.0000
     14 C         142.3884  140.4878  166.3661 C.ar    1  UNL1       -0.0000
     15 C         143.2435  141.0161  165.2528 C.ar    1  UNL1       -0.0003
     16 C         142.9927  142.3882  164.7007 C.ar    1  UNL1       -0.0042
     17 C         139.7243  145.1084  162.7526 C.3     1  UNL1        0.1020
     18 C         138.7991  143.9455  162.9571 C.3     1  UNL1        0.1697
     19 O         137.5617  143.8152  162.1192 O.3     1  UNL1       -0.3793
     20 H         137.5108  144.5598  161.4997 H       1  UNL1        0.2106
     21 C         139.1113  142.9131  163.9995 C.3     1  UNL1        0.2358
     22 O         138.7259  141.4809  163.7756 O.3     1  UNL1       -0.4721
     23 C         139.7770  140.4654  163.4375 C.ar    1  UNL1        0.1490
     24 C         140.7899  140.7609  162.3714 C.ar    1  UNL1        0.0377
     25 C         141.8409  139.7455  162.0334 C.ar    1  UNL1        0.0040
     26 C         141.8789  138.4346  162.7615 C.ar    1  UNL1        0.0123
     27 C         140.8660  138.1391  163.8276 C.ar    1  UNL1        0.0702
     28 CL        140.9041  136.8282  164.5557 Cl      1  UNL1       -0.0814
     29 C         139.8150  139.1545  164.1656 C.ar    1  UNL1        0.1128
     30 C         138.8020  138.8591  165.2317 C.1     1  UNL1        0.1043
     31 N         137.7891  138.5636  166.2978 N.1     1  UNL1       -0.1907
@<TRIPOS>BOND
     1     3     4    1
     2     4     5    1
     3     4     6    1
     4     6     7    1
     5     7     8   ar
     6     8     9   ar
     7     9    10   ar
     8    10    11   ar
     9    11    12   ar
    10    12    13   ar
    11    13    14   ar
    12    14    15   ar
    13    15    16   ar
    14     4     1    1
    15     1    17    1
    16    17    18    1
    17    18    19    1
    18    18    21    1
    19    21    22    1
    20    22    23    1
    21    23    24   ar
    22    24    25   ar
    23    25    26   ar
    24    26    27   ar
    25    27    28    1
    26    27    29   ar
    27    29    30    1
    28    30    31    3
    29    16     7   ar
    30    29    23   ar
    31    15    10   ar
    32     1     2    1
    33    19    20    1
@<TRIPOS>MOLECULE
*****
 31 33 0 0 0
SMALL
GASTEIGER

@<TRIPOS>ATOM
      1 N         144.3759  144.3723  162.3742 N.3     1  UNL1       -0.2972
      2 H         145.0979  144.4182  163.0933 H       1  UNL1        0.1233
      3 C         142.3366  144.3377  161.7910 C.3     1  UNL1        0.0161
      4 C         143.0752  144.7013  163.0449 C.3     1  UNL1        0.0461
      5 C         143.8137  145.0649  164.2989 C.3     1  UNL1        0.0161
      6 C         141.7744  145.0303  163.7156 C.3     1  UNL1        0.0408
      7 C         140.8188  143.9323  164.0782 C.ar    1  UNL1       -0.0209
      8 C         139.3918  143.9987  163.6208 C.ar    1  UNL1       -0.0042
      9 C         138.4362  142.9008  163.9833 C.ar    1  UNL1       -0.0003
     10 C         138.9075  141.7365  164.8033 C.ar    1  UNL1       -0.0000
     11 C         137.9519  140.6387  165.1658 C.ar    1  UNL1       -0.0000
     12 C         138.4233  139.4745  165.9857 C.ar    1  UNL1       -0.0000
     13 C         139.8504  139.4081  166.4431 C.ar    1  UNL1       -0.0000
     14 C         140.8060  140.5059  166.0806 C.ar    1  UNL1       -0.0000
     15 C         140.3346  141.6702  165.2607 C.ar    1  UNL1       -0.0003
     16 C         141.2902  142.7681  164.8981 C.ar    1  UNL1       -0.0042
     17 C         144.5465  143.0575  161.6726 C.3     1  UNL1        0.1020
     18 C         145.0096  141.8535  162.4381 C.3     1  UNL1        0.1697
     19 O         146.3612  141.8527  163.0888 O.3     1  UNL1       -0.3793
     20 H         146.8022  142.6999  162.9192 H       1  UNL1        0.2106
     21 C         144.1213  140.6503  162.5529 C.3     1  UNL1        0.2358
     22 O         142.6676  140.7548  162.1985 O.3     1  UNL1       -0.4721
     23 C         141.7276  139.6404  162.5513 C.ar    1  UNL1        0.1490
     24 C         142.2176  138.4715  163.3536 C.ar    1  UNL1        0.0377
     25 C         141.2777  137.3572  163.7064 C.ar    1  UNL1        0.0040
     26 C         139.8476  137.4116  163.2570 C.ar    1  UNL1        0.0123
     27 C         139.3575  138.5804  162.4547 C.ar    1  UNL1        0.0702
     28 CL        137.9275  138.6348  162.0053 Cl      1  UNL1       -0.0814
     29 C         140.2975  139.6948  162.1019 C.ar    1  UNL1        0.1128
     30 C         139.8075  140.8637  161.2996 C.1     1  UNL1        0.1043
     31 N         139.3174  142.0325  160.4973 N.1     1  UNL1       -0.1907
@<TRIPOS>BOND
     1     3     4    1
     2     4     5    1
     3     4     6    1
     4     6     7    1
     5     7     8   ar
     6     8     9   ar
     7     9    10   ar
     8    10    11   ar
     9    11    12   ar
    10    12    13   ar
    11    13    14   ar
    12    14    15   ar
    13    15    16   ar
    14     4     1    1
    15     1    17    1
    16    17    18    1
    17    18    19    1
    18    18    21    1
    19    21    22    1
    20    22    23    1
    21    23    24   ar
    22    24    25   ar
    23    25    26   ar
    24    26    27   ar
    25    27    28    1
    26    27    29   ar
    27    29    30    1
    28    30    31    3
    29    16     7   ar
    30    29    23   ar
    31    15    10   ar
    32     1     2    1
    33    19    20    1
