@<TRIPOS>MOLECULE
*****
 34 37 0 0 0
SMALL
GASTEIGER

@<TRIPOS>ATOM
      1 N         141.5666  142.2494  168.2939 N.3     1  UNL1       -0.2750
      2 C         142.9610  141.7018  168.3702 C.3     1  UNL1        0.0611
      3 C         143.6194  142.2779  169.5886 C.3     1  UNL1        0.0175
      4 C         142.6318  143.1816  170.2655 C.3     1  UNL1        0.0175
      5 C         141.3632  143.1640  169.4653 C.3     1  UNL1        0.0611
      6 C         140.2376  142.9548  168.4813 C.3     1  UNL1        0.0595
      7 C         140.5863  142.0161  167.3644 C.3     1  UNL1        0.1686
      8 C         141.9480  141.3896  167.3089 C.3     1  UNL1        0.0595
      9 C         140.5536  141.9372  167.2327 C.3     1  UNL1        0.0720
     10 C         140.8483  143.8996  163.1939 C.3     1  UNL1        0.0730
     11 C         141.8346  142.8399  163.5866 C.3     1  UNL1        0.0197
     12 C         141.7363  142.1858  164.9328 C.3     1  UNL1        0.0031
     13 C         140.6518  142.5914  165.8864 C.3     1  UNL1        0.0161
     14 C         139.6656  143.6511  165.4938 C.3     1  UNL1        0.0031
     15 C         139.7638  144.3053  164.1475 C.3     1  UNL1        0.0197
     16 C         139.7363  143.9397  158.1183 C.3     1  UNL1        0.1165
     17 N         140.3905  144.5738  159.3098 N.am    1  UNL1       -0.2607
     18 C         141.1431  145.8622  159.1551 C.3     1  UNL1        0.1165
     19 C         140.2923  143.9197  160.6561 C.2     1  UNL1        0.3040
     20 O         139.5398  142.6313  160.8109 O.2     1  UNL1       -0.2526
     21 N         140.9466  144.5538  161.8476 N.am    1  UNL1       -0.2904
     22 H         141.4405  145.3994  161.7461 H       1  UNL1        0.1509
     23 O         139.5731  141.7040  166.3031 O.3     1  UNL1       -0.4791
     24 C         139.1761  140.2815  166.0405 C.ar    1  UNL1        0.1385
     25 C         138.4406  139.5022  167.0900 C.ar    1  UNL1        0.0369
     26 C         138.0435  138.0798  166.8274 C.ar    1  UNL1        0.0033
     27 C         138.3820  137.4367  165.5152 C.ar    1  UNL1        0.0047
     28 C         139.1176  138.2160  164.4657 C.ar    1  UNL1        0.0561
     29 C         139.5146  139.6385  164.7283 C.ar    1  UNL1        0.0414
     30 C         139.4561  137.5729  163.1535 C.2     1  UNL1        0.2428
     31 N         138.4503  137.5646  162.0407 N.am    1  UNL1       -0.3253
     32 O         140.8005  136.9381  162.9541 O.2     1  UNL1       -0.2704
     33 H         137.5679  137.9812  162.1716 H       1  UNL1        0.1453
     34 H         138.6725  137.1425  161.1795 H       1  UNL1        0.1453
@<TRIPOS>BOND
     1    16    17    1
     2    17    18    1
     3    17    19   am
     4    19    20    2
     5    19    21   am
     6    10    21    1
     7    10    11    1
     8    11    12    1
     9    12    13    1
    10    13     9    1
    11     9     1    1
    12     1     2    1
    13     2     3    1
    14     3     4    1
    15     5     4    1
    16     5     6    1
    17     6     7    1
    18     7    23    1
    19    23    24    1
    20    24    25   ar
    21    25    26   ar
    22    26    27   ar
    23    27    28   ar
    24    28    30    1
    25    30    31   am
    26    30    32    2
    27    28    29   ar
    28     7     8    1
    29    13    14    1
    30    14    15    1
    31    15    10    1
    32     5     1    1
    33    29    24   ar
    34     8     2    1
    35    21    22    1
    36    31    33    1
    37    31    34    1
@<TRIPOS>MOLECULE
*****
 34 37 0 0 0
SMALL
GASTEIGER

@<TRIPOS>ATOM
      1 N         139.0965  138.6444  165.1693 N.3     1  UNL1       -0.2750
      2 C         138.5870  137.2601  165.4413 C.3     1  UNL1        0.0611
      3 C         137.7172  137.3178  166.6621 C.3     1  UNL1        0.0175
      4 C         137.6892  138.7378  167.1445 C.3     1  UNL1        0.0175
      5 C         138.5416  139.5577  166.2220 C.3     1  UNL1        0.0611
      6 C         139.4438  140.1203  165.1502 C.3     1  UNL1        0.0595
      7 C         139.9208  139.0909  164.1690 C.3     1  UNL1        0.1686
      8 C         139.4924  137.6608  164.3145 C.3     1  UNL1        0.0595
      9 C         140.0019  139.0451  164.0425 C.3     1  UNL1        0.0720
     10 C         138.2867  139.8863  159.9682 C.3     1  UNL1        0.0730
     11 C         138.0804  140.8655  161.0856 C.3     1  UNL1        0.0197
     12 C         138.6521  140.5851  162.4437 C.3     1  UNL1        0.0031
     13 C         139.4302  139.3255  162.6844 C.3     1  UNL1        0.0161
     14 C         139.6366  138.3463  161.5671 C.3     1  UNL1        0.0031
     15 C         139.0649  138.6266  160.2089 C.3     1  UNL1        0.0197
     16 C         138.9080  141.5120  155.0722 C.3     1  UNL1        0.1165
     17 N         138.0256  140.9796  156.1621 N.am    1  UNL1       -0.2607
     18 C         136.5714  140.7275  155.8938 C.3     1  UNL1        0.1165
     19 C         138.5974  140.6992  157.5202 C.2     1  UNL1        0.3040
     20 O         140.0515  140.9512  157.7884 O.2     1  UNL1       -0.2526
     21 N         137.7150  140.1667  158.6101 N.am    1  UNL1       -0.2904
     22 H         136.7606  140.0013  158.4340 H       1  UNL1        0.1509
     23 O         140.8263  139.4916  163.0421 O.3     1  UNL1       -0.4791
     24 C         142.2213  139.9609  163.3316 C.ar    1  UNL1        0.1385
     25 C         143.2873  138.9682  163.6898 C.ar    1  UNL1        0.0369
     26 C         144.6822  139.4374  163.9792 C.ar    1  UNL1        0.0033
     27 C         145.0113  140.8992  163.9104 C.ar    1  UNL1        0.0047
     28 C         143.9453  141.8919  163.5522 C.ar    1  UNL1        0.0561
     29 C         142.5503  141.4227  163.2628 C.ar    1  UNL1        0.0414
     30 C         144.2743  143.3537  163.4834 C.2     1  UNL1        0.2428
     31 N         144.6686  143.9730  162.1753 N.am    1  UNL1       -0.3253
     32 O         144.2091  144.1963  164.7228 O.2     1  UNL1       -0.2704
     33 H         144.7114  143.4200  161.3619 H       1  UNL1        0.1453
     34 H         144.8846  144.9325  162.1302 H       1  UNL1        0.1453
@<TRIPOS>BOND
     1    16    17    1
     2    17    18    1
     3    17    19   am
     4    19    20    2
     5    19    21   am
     6    10    21    1
     7    10    11    1
     8    11    12    1
     9    12    13    1
    10    13     9    1
    11     9     1    1
    12     1     2    1
    13     2     3    1
    14     3     4    1
    15     5     4    1
    16     5     6    1
    17     6     7    1
    18     7    23    1
    19    23    24    1
    20    24    25   ar
    21    25    26   ar
    22    26    27   ar
    23    27    28   ar
    24    28    30    1
    25    30    31   am
    26    30    32    2
    27    28    29   ar
    28     7     8    1
    29    13    14    1
    30    14    15    1
    31    15    10    1
    32     5     1    1
    33    29    24   ar
    34     8     2    1
    35    21    22    1
    36    31    33    1
    37    31    34    1
@<TRIPOS>MOLECULE
*****
 34 37 0 0 0
SMALL
GASTEIGER

@<TRIPOS>ATOM
      1 N         139.3130  142.6343  164.7531 N.3     1  UNL1       -0.2750
      2 C         137.8527  142.8250  164.4684 C.3     1  UNL1        0.0611
      3 C         137.6160  144.2848  164.2177 C.3     1  UNL1        0.0175
      4 C         138.9300  144.9963  164.3474 C.3     1  UNL1        0.0175
      5 C         139.9789  143.9763  164.6782 C.3     1  UNL1        0.0611
      6 C         140.8045  142.7538  164.9988 C.3     1  UNL1        0.0595
      7 C         140.0044  141.4856  165.0394 C.3     1  UNL1        0.1686
      8 C         138.5285  141.5212  164.7742 C.3     1  UNL1        0.0595
      9 C         139.9888  141.3306  165.0588 C.3     1  UNL1        0.0720
     10 C         141.5187  138.7485  161.7059 C.3     1  UNL1        0.0730
     11 C         142.3997  139.8079  162.2987 C.3     1  UNL1        0.0197
     12 C         141.8898  140.6685  163.4163 C.3     1  UNL1        0.0031
     13 C         140.4988  140.4698  163.9412 C.3     1  UNL1        0.0161
     14 C         139.6177  139.4105  163.3485 C.3     1  UNL1        0.0031
     15 C         140.1276  138.5497  162.2308 C.3     1  UNL1        0.0197
     16 C         142.7138  138.1315  156.6869 C.3     1  UNL1        0.1165
     17 N         142.6262  137.5792  158.0787 N.am    1  UNL1       -0.2607
     18 C         143.0486  136.1662  158.3530 C.3     1  UNL1        0.1165
     19 C         142.1162  138.4400  159.1964 C.2     1  UNL1        0.3040
     20 O         141.6939  139.8529  158.9222 O.2     1  UNL1       -0.2526
     21 N         142.0286  137.8877  160.5883 N.am    1  UNL1       -0.2904
     22 H         142.3058  136.9604  160.7683 H       1  UNL1        0.1509
     23 O         140.6803  140.1818  165.3452 O.3     1  UNL1       -0.4791
     24 C         141.1517  139.8902  166.7390 C.ar    1  UNL1        0.1385
     25 C         142.5041  139.2807  166.9612 C.ar    1  UNL1        0.0369
     26 C         142.9756  138.9891  168.3549 C.ar    1  UNL1        0.0033
     27 C         142.0946  139.3071  169.5266 C.ar    1  UNL1        0.0047
     28 C         140.7422  139.9166  169.3044 C.ar    1  UNL1        0.0561
     29 C         140.2707  140.2082  167.9106 C.ar    1  UNL1        0.0414
     30 C         139.8612  140.2346  170.4760 C.2     1  UNL1        0.2428
     31 N         138.3849  139.9816  170.3949 N.am    1  UNL1       -0.3253
     32 O         140.4565  140.8056  171.7289 O.2     1  UNL1       -0.2704
     33 H         137.9942  139.6068  169.5726 H       1  UNL1        0.1453
     34 H         137.8067  140.1903  171.1639 H       1  UNL1        0.1453
@<TRIPOS>BOND
     1    16    17    1
     2    17    18    1
     3    17    19   am
     4    19    20    2
     5    19    21   am
     6    10    21    1
     7    10    11    1
     8    11    12    1
     9    12    13    1
    10    13     9    1
    11     9     1    1
    12     1     2    1
    13     2     3    1
    14     3     4    1
    15     5     4    1
    16     5     6    1
    17     6     7    1
    18     7    23    1
    19    23    24    1
    20    24    25   ar
    21    25    26   ar
    22    26    27   ar
    23    27    28   ar
    24    28    30    1
    25    30    31   am
    26    30    32    2
    27    28    29   ar
    28     7     8    1
    29    13    14    1
    30    14    15    1
    31    15    10    1
    32     5     1    1
    33    29    24   ar
    34     8     2    1
    35    21    22    1
    36    31    33    1
    37    31    34    1
@<TRIPOS>MOLECULE
*****
 34 37 0 0 0
SMALL
GASTEIGER

@<TRIPOS>ATOM
      1 N         139.3365  142.6573  164.6455 N.3     1  UNL1       -0.2750
      2 C         139.9764  144.0091  164.5309 C.3     1  UNL1        0.0611
      3 C         138.8992  145.0075  164.2261 C.3     1  UNL1        0.0175
      4 C         137.5936  144.2727  164.1523 C.3     1  UNL1        0.0175
      5 C         137.8638  142.8202  164.4115 C.3     1  UNL1        0.0611
      6 C         138.4234  141.4479  164.6996 C.3     1  UNL1        0.0595
      7 C         139.9083  141.4400  164.9117 C.3     1  UNL1        0.1686
      8 C         140.6848  142.7206  164.8274 C.3     1  UNL1        0.0595
      9 C         140.0449  141.3688  164.9419 C.3     1  UNL1        0.0720
     10 C         141.5490  138.7998  161.5674 C.3     1  UNL1        0.0730
     11 C         140.2162  138.5121  162.1925 C.3     1  UNL1        0.0197
     12 C         139.7149  139.3684  163.3173 C.3     1  UNL1        0.0031
     13 C         140.5463  140.5124  163.8171 C.3     1  UNL1        0.0161
     14 C         141.8791  140.8002  163.1920 C.3     1  UNL1        0.0031
     15 C         142.3805  139.9440  162.0671 C.3     1  UNL1        0.0197
     16 C         142.1266  137.9453  156.4746 C.3     1  UNL1        0.1165
     17 N         142.3392  137.5162  157.8961 N.am    1  UNL1       -0.2607
     18 C         143.0532  136.2308  158.1928 C.3     1  UNL1        0.1165
     19 C         141.8378  138.3726  159.0210 C.2     1  UNL1        0.3040
     20 O         141.1239  139.6580  158.7244 O.2     1  UNL1       -0.2526
     21 N         142.0504  137.9435  160.4425 N.am    1  UNL1       -0.2904
     22 H         142.5190  137.0998  160.6372 H       1  UNL1        0.1509
     23 O         140.6167  140.1515  165.2082 O.3     1  UNL1       -0.4791
     24 C         141.1066  139.8673  166.5972 C.ar    1  UNL1        0.1385
     25 C         142.4650  139.2662  166.8051 C.ar    1  UNL1        0.0369
     26 C         142.9549  138.9821  168.1940 C.ar    1  UNL1        0.0033
     27 C         142.0863  139.2990  169.3751 C.ar    1  UNL1        0.0047
     28 C         140.7279  139.9001  169.1673 C.ar    1  UNL1        0.0561
     29 C         140.2380  140.1843  167.7783 C.ar    1  UNL1        0.0414
     30 C         139.8593  140.2171  170.3484 C.2     1  UNL1        0.2428
     31 N         139.7507  139.2417  171.4828 N.am    1  UNL1       -0.3253
     32 O         139.0993  141.5095  170.3952 O.2     1  UNL1       -0.2704
     33 H         140.2495  138.3934  171.4521 H       1  UNL1        0.1453
     34 H         139.1806  139.4497  172.2580 H       1  UNL1        0.1453
@<TRIPOS>BOND
     1    16    17    1
     2    17    18    1
     3    17    19   am
     4    19    20    2
     5    19    21   am
     6    10    21    1
     7    10    11    1
     8    11    12    1
     9    12    13    1
    10    13     9    1
    11     9     1    1
    12     1     2    1
    13     2     3    1
    14     3     4    1
    15     5     4    1
    16     5     6    1
    17     6     7    1
    18     7    23    1
    19    23    24    1
    20    24    25   ar
    21    25    26   ar
    22    26    27   ar
    23    27    28   ar
    24    28    30    1
    25    30    31   am
    26    30    32    2
    27    28    29   ar
    28     7     8    1
    29    13    14    1
    30    14    15    1
    31    15    10    1
    32     5     1    1
    33    29    24   ar
    34     8     2    1
    35    21    22    1
    36    31    33    1
    37    31    34    1
@<TRIPOS>MOLECULE
*****
 34 37 0 0 0
SMALL
GASTEIGER

@<TRIPOS>ATOM
      1 N         142.5638  142.7337  164.3836 N.3     1  UNL1       -0.2750
      2 C         141.9450  143.9579  163.7766 C.3     1  UNL1        0.0611
      3 C         142.8926  145.1035  163.9755 C.3     1  UNL1        0.0175
      4 C         144.0971  144.5874  164.7053 C.3     1  UNL1        0.0175
      5 C         143.8939  143.1227  164.9576 C.3     1  UNL1        0.0611
      6 C         143.4262  141.6917  165.0689 C.3     1  UNL1        0.0595
      7 C         142.0806  141.4525  164.4508 C.3     1  UNL1        0.1686
      8 C         141.3399  142.5856  163.8046 C.3     1  UNL1        0.0595
      9 C         141.9588  141.3614  164.4116 C.3     1  UNL1        0.0720
     10 C         142.4402  138.6175  160.8777 C.3     1  UNL1        0.0730
     11 C         143.5218  138.7034  161.9134 C.3     1  UNL1        0.0197
     12 C         143.3613  139.6180  163.0913 C.3     1  UNL1        0.0031
     13 C         142.1192  140.4468  163.2336 C.3     1  UNL1        0.0161
     14 C         141.0376  140.3609  162.1980 C.3     1  UNL1        0.0031
     15 C         141.1980  139.4463  161.0200 C.3     1  UNL1        0.0197
     16 C         143.1690  137.9325  155.7787 C.3     1  UNL1        0.1165
     17 N         142.9651  137.3603  157.1502 N.am    1  UNL1       -0.2607
     18 C         142.9216  135.8734  157.3437 C.3     1  UNL1        0.1165
     19 C         142.8046  138.2750  158.3282 C.2     1  UNL1        0.3040
     20 O         142.8481  139.7618  158.1347 O.2     1  UNL1       -0.2526
     21 N         142.6007  137.7028  159.6997 N.am    1  UNL1       -0.2904
     22 H         142.5721  136.7270  159.8267 H       1  UNL1        0.1509
     23 O         141.4755  140.0801  164.4788 O.3     1  UNL1       -0.4791
     24 C         140.3962  139.7565  165.4689 C.ar    1  UNL1        0.1385
     25 C         139.2319  138.9050  165.0575 C.ar    1  UNL1        0.0369
     26 C         138.1526  138.5813  166.0475 C.ar    1  UNL1        0.0033
     27 C         138.2375  139.1091  167.4490 C.ar    1  UNL1        0.0047
     28 C         139.4018  139.9606  167.8604 C.ar    1  UNL1        0.0561
     29 C         140.4812  140.2843  166.8703 C.ar    1  UNL1        0.0414
     30 C         139.4868  140.4885  169.2619 C.2     1  UNL1        0.2428
     31 N         138.6605  139.8671  170.3487 N.am    1  UNL1       -0.3253
     32 O         140.3980  141.6377  169.5766 O.2     1  UNL1       -0.2704
     33 H         138.0625  139.1128  170.1422 H       1  UNL1        0.1453
     34 H         138.7163  140.2135  171.2686 H       1  UNL1        0.1453
@<TRIPOS>BOND
     1    16    17    1
     2    17    18    1
     3    17    19   am
     4    19    20    2
     5    19    21   am
     6    10    21    1
     7    10    11    1
     8    11    12    1
     9    12    13    1
    10    13     9    1
    11     9     1    1
    12     1     2    1
    13     2     3    1
    14     3     4    1
    15     5     4    1
    16     5     6    1
    17     6     7    1
    18     7    23    1
    19    23    24    1
    20    24    25   ar
    21    25    26   ar
    22    26    27   ar
    23    27    28   ar
    24    28    30    1
    25    30    31   am
    26    30    32    2
    27    28    29   ar
    28     7     8    1
    29    13    14    1
    30    14    15    1
    31    15    10    1
    32     5     1    1
    33    29    24   ar
    34     8     2    1
    35    21    22    1
    36    31    33    1
    37    31    34    1
@<TRIPOS>MOLECULE
*****
 34 37 0 0 0
SMALL
GASTEIGER

@<TRIPOS>ATOM
      1 N         142.1969  142.7547  163.6941 N.3     1  UNL1       -0.2750
      2 C         142.3443  144.1574  164.2046 C.3     1  UNL1        0.0611
      3 C         143.8090  144.4453  164.3527 C.3     1  UNL1        0.0175
      4 C         144.5668  143.2205  163.9337 C.3     1  UNL1        0.0175
      5 C         143.5705  142.1756  163.5267 C.3     1  UNL1        0.0611
      6 C         142.3632  141.3354  163.1870 C.3     1  UNL1        0.0595
      7 C         141.0600  142.0458  163.4039 C.3     1  UNL1        0.1686
      8 C         141.0505  143.4568  163.9127 C.3     1  UNL1        0.0595
      9 C         140.9032  142.0541  163.4022 C.3     1  UNL1        0.0720
     10 C         138.9247  142.5607  159.3923 C.3     1  UNL1        0.0730
     11 C         138.2222  143.0135  160.6379 C.3     1  UNL1        0.0197
     12 C         138.8817  142.8447  161.9744 C.3     1  UNL1        0.0031
     13 C         140.2437  142.2229  162.0655 C.3     1  UNL1        0.0161
     14 C         140.9462  141.7701  160.8201 C.3     1  UNL1        0.0031
     15 C         140.2868  141.9389  159.4834 C.3     1  UNL1        0.0197
     16 C         136.0272  140.6417  155.5295 C.3     1  UNL1        0.1165
     17 N         136.8165  141.7701  156.1243 N.am    1  UNL1       -0.2607
     18 C         136.9463  143.0674  155.3824 C.3     1  UNL1        0.1165
     19 C         137.4760  141.6012  157.4609 C.2     1  UNL1        0.3040
     20 O         137.3461  140.3040  158.2028 O.2     1  UNL1       -0.2526
     21 N         138.2653  142.7296  158.0557 N.am    1  UNL1       -0.2904
     22 H         138.3505  143.5810  157.5688 H       1  UNL1        0.1509
     23 O         139.7661  141.3450  163.1120 O.3     1  UNL1       -0.4791
     24 C         139.4522  140.0402  163.7819 C.ar    1  UNL1        0.1385
     25 C         139.6980  138.7484  163.0602 C.ar    1  UNL1        0.0369
     26 C         139.3841  137.4436  163.7301 C.ar    1  UNL1        0.0033
     27 C         138.8243  137.4305  165.1216 C.ar    1  UNL1        0.0047
     28 C         138.5784  138.7222  165.8433 C.ar    1  UNL1        0.0561
     29 C         138.8924  140.0271  165.1734 C.ar    1  UNL1        0.0414
     30 C         138.0186  138.7091  167.2348 C.2     1  UNL1        0.2428
     31 N         138.6611  139.5351  168.3096 N.am    1  UNL1       -0.3253
     32 O         136.8162  137.8700  167.5517 O.2     1  UNL1       -0.2704
     33 H         139.4502  140.0858  168.1016 H       1  UNL1        0.1453
     34 H         138.2936  139.5265  169.2229 H       1  UNL1        0.1453
@<TRIPOS>BOND
     1    16    17    1
     2    17    18    1
     3    17    19   am
     4    19    20    2
     5    19    21   am
     6    10    21    1
     7    10    11    1
     8    11    12    1
     9    12    13    1
    10    13     9    1
    11     9     1    1
    12     1     2    1
    13     2     3    1
    14     3     4    1
    15     5     4    1
    16     5     6    1
    17     6     7    1
    18     7    23    1
    19    23    24    1
    20    24    25   ar
    21    25    26   ar
    22    26    27   ar
    23    27    28   ar
    24    28    30    1
    25    30    31   am
    26    30    32    2
    27    28    29   ar
    28     7     8    1
    29    13    14    1
    30    14    15    1
    31    15    10    1
    32     5     1    1
    33    29    24   ar
    34     8     2    1
    35    21    22    1
    36    31    33    1
    37    31    34    1
@<TRIPOS>MOLECULE
*****
 34 37 0 0 0
SMALL
GASTEIGER

@<TRIPOS>ATOM
      1 N         142.4920  142.2450  164.5991 N.3     1  UNL1       -0.2750
      2 C         142.7323  143.7232  164.6835 C.3     1  UNL1        0.0611
      3 C         144.2147  143.9519  164.6958 C.3     1  UNL1        0.0175
      4 C         144.8905  142.6149  164.6191 C.3     1  UNL1        0.0175
      5 C         143.8258  141.5600  164.5593 C.3     1  UNL1        0.0611
      6 C         142.5638  140.7328  164.5126 C.3     1  UNL1        0.0595
      7 C         141.3089  141.5533  164.5601 C.3     1  UNL1        0.1686
      8 C         141.3932  143.0484  164.6455 C.3     1  UNL1        0.0595
      9 C         141.1528  141.5702  164.5612 C.3     1  UNL1        0.0720
     10 C         138.8855  141.2860  160.6846 C.3     1  UNL1        0.0730
     11 C         138.4144  142.2167  161.7625 C.3     1  UNL1        0.0197
     12 C         139.1701  142.3114  163.0546 C.3     1  UNL1        0.0031
     13 C         140.3970  141.4755  163.2690 C.3     1  UNL1        0.0161
     14 C         140.8681  140.5448  162.1911 C.3     1  UNL1        0.0031
     15 C         140.1124  140.4500  160.8989 C.3     1  UNL1        0.0197
     16 C         137.4933  143.3503  156.1238 C.3     1  UNL1        0.1165
     17 N         137.4336  142.2234  157.1120 N.am    1  UNL1       -0.2607
     18 C         136.6180  141.0016  156.8080 C.3     1  UNL1        0.1165
     19 C         138.1894  142.3181  158.4042 C.2     1  UNL1        0.3040
     20 O         139.0049  143.5398  158.7083 O.2     1  UNL1       -0.2526
     21 N         138.1297  141.1912  159.3924 N.am    1  UNL1       -0.2904
     22 H         137.5944  140.3894  159.1928 H       1  UNL1        0.1509
     23 O         139.9698  140.8784  164.5222 O.3     1  UNL1       -0.4791
     24 C         139.3830  140.3052  165.7780 C.ar    1  UNL1        0.1385
     25 C         138.2970  139.2738  165.6957 C.ar    1  UNL1        0.0369
     26 C         137.7103  138.7005  166.9514 C.ar    1  UNL1        0.0033
     27 C         138.2095  139.1587  168.2896 C.ar    1  UNL1        0.0047
     28 C         139.2955  140.1901  168.3720 C.ar    1  UNL1        0.0561
     29 C         139.8822  140.7634  167.1162 C.ar    1  UNL1        0.0414
     30 C         139.7947  140.6483  169.7103 C.2     1  UNL1        0.2428
     31 N         139.7774  139.7084  170.8792 N.am    1  UNL1       -0.3253
     32 O         140.3111  142.0464  169.8796 O.2     1  UNL1       -0.2704
     33 H         139.4384  138.7908  170.7680 H       1  UNL1        0.1453
     34 H         140.1051  140.0091  171.7575 H       1  UNL1        0.1453
@<TRIPOS>BOND
     1    16    17    1
     2    17    18    1
     3    17    19   am
     4    19    20    2
     5    19    21   am
     6    10    21    1
     7    10    11    1
     8    11    12    1
     9    12    13    1
    10    13     9    1
    11     9     1    1
    12     1     2    1
    13     2     3    1
    14     3     4    1
    15     5     4    1
    16     5     6    1
    17     6     7    1
    18     7    23    1
    19    23    24    1
    20    24    25   ar
    21    25    26   ar
    22    26    27   ar
    23    27    28   ar
    24    28    30    1
    25    30    31   am
    26    30    32    2
    27    28    29   ar
    28     7     8    1
    29    13    14    1
    30    14    15    1
    31    15    10    1
    32     5     1    1
    33    29    24   ar
    34     8     2    1
    35    21    22    1
    36    31    33    1
    37    31    34    1
@<TRIPOS>MOLECULE
*****
 34 37 0 0 0
SMALL
GASTEIGER

@<TRIPOS>ATOM
      1 N         142.8689  142.2643  164.0675 N.3     1  UNL1       -0.2750
      2 C         144.2275  141.6886  163.7973 C.3     1  UNL1        0.0611
      3 C         145.2396  142.5331  164.5132 C.3     1  UNL1        0.0175
      4 C         144.5065  143.6307  165.2258 C.3     1  UNL1        0.0175
      5 C         143.0414  143.4645  164.9504 C.3     1  UNL1        0.0611
      6 C         141.6555  143.0584  164.5105 C.3     1  UNL1        0.0595
      7 C         141.6392  141.8421  163.6327 C.3     1  UNL1        0.1686
      8 C         142.9252  141.1572  163.2761 C.3     1  UNL1        0.0595
      9 C         141.5666  141.7329  163.5463 C.3     1  UNL1        0.0720
     10 C         139.9796  143.1574  159.5838 C.3     1  UNL1        0.0730
     11 C         139.5410  143.8275  160.8521 C.3     1  UNL1        0.0197
     12 C         140.0700  143.3527  162.1729 C.3     1  UNL1        0.0031
     13 C         141.0376  142.2077  162.2255 C.3     1  UNL1        0.0161
     14 C         141.4762  141.5376  160.9572 C.3     1  UNL1        0.0031
     15 C         140.9472  142.0124  159.6363 C.3     1  UNL1        0.0197
     16 C         140.1267  146.5165  155.6221 C.3     1  UNL1        0.1165
     17 N         139.5241  145.3118  156.2821 N.am    1  UNL1       -0.2607
     18 C         138.3925  144.5819  155.6212 C.3     1  UNL1        0.1165
     19 C         140.0531  144.8370  157.6030 C.2     1  UNL1        0.3040
     20 O         141.1847  145.5668  158.2639 O.2     1  UNL1       -0.2526
     21 N         139.4506  143.6323  158.2629 N.am    1  UNL1       -0.2904
     22 H         138.7079  143.1532  157.8292 H       1  UNL1        0.1509
     23 O         140.3368  141.3108  163.1115 O.3     1  UNL1       -0.4791
     24 C         139.7569  140.0520  163.6854 C.ar    1  UNL1        0.1385
     25 C         139.6946  138.8068  162.8514 C.ar    1  UNL1        0.0369
     26 C         139.1147  137.5481  163.4251 C.ar    1  UNL1        0.0033
     27 C         138.5972  137.5345  164.8329 C.ar    1  UNL1        0.0047
     28 C         138.6595  138.7797  165.6669 C.ar    1  UNL1        0.0561
     29 C         139.2394  140.0385  165.0931 C.ar    1  UNL1        0.0414
     30 C         138.1420  138.7661  167.0748 C.2     1  UNL1        0.2428
     31 N         138.8254  139.5805  168.1330 N.am    1  UNL1       -0.3253
     32 O         136.9411  137.9381  167.4244 O.2     1  UNL1       -0.2704
     33 H         139.6136  140.1240  167.9035 H       1  UNL1        0.1453
     34 H         138.4857  139.5716  169.0570 H       1  UNL1        0.1453
@<TRIPOS>BOND
     1    16    17    1
     2    17    18    1
     3    17    19   am
     4    19    20    2
     5    19    21   am
     6    10    21    1
     7    10    11    1
     8    11    12    1
     9    12    13    1
    10    13     9    1
    11     9     1    1
    12     1     2    1
    13     2     3    1
    14     3     4    1
    15     5     4    1
    16     5     6    1
    17     6     7    1
    18     7    23    1
    19    23    24    1
    20    24    25   ar
    21    25    26   ar
    22    26    27   ar
    23    27    28   ar
    24    28    30    1
    25    30    31   am
    26    30    32    2
    27    28    29   ar
    28     7     8    1
    29    13    14    1
    30    14    15    1
    31    15    10    1
    32     5     1    1
    33    29    24   ar
    34     8     2    1
    35    21    22    1
    36    31    33    1
    37    31    34    1
@<TRIPOS>MOLECULE
*****
 34 37 0 0 0
SMALL
GASTEIGER

@<TRIPOS>ATOM
      1 N         139.4727  142.4965  163.3544 N.3     1  UNL1       -0.2750
      2 C         139.8741  143.9065  163.0367 C.3     1  UNL1        0.0611
      3 C         138.8000  144.8205  163.5473 C.3     1  UNL1        0.0175
      4 C         137.7347  143.9755  164.1805 C.3     1  UNL1        0.0175
      5 C         138.1504  142.5392  164.0613 C.3     1  UNL1        0.0611
      6 C         138.8122  141.2073  163.8024 C.3     1  UNL1        0.0595
      7 C         140.1265  141.3212  163.0885 C.3     1  UNL1        0.1686
      8 C         140.6575  142.6708  162.7056 C.3     1  UNL1        0.0595
      9 C         140.2560  141.2609  163.0233 C.3     1  UNL1        0.0720
     10 C         139.5764  139.1474  159.1091 C.3     1  UNL1        0.0730
     11 C         139.2221  138.4690  160.3992 C.3     1  UNL1        0.0197
     12 C         139.4487  139.1735  161.7039 C.3     1  UNL1        0.0031
     13 C         140.0295  140.5564  161.7186 C.3     1  UNL1        0.0161
     14 C         140.3837  141.2348  160.4286 C.3     1  UNL1        0.0031
     15 C         140.1572  140.5304  159.1238 C.3     1  UNL1        0.0197
     16 C         141.3558  136.1959  155.2204 C.3     1  UNL1        0.1165
     17 N         140.2395  136.9672  155.8600 N.am    1  UNL1       -0.2607
     18 C         138.8966  137.0340  155.1948 C.3     1  UNL1        0.1165
     19 C         140.4661  137.6717  157.1647 C.2     1  UNL1        0.3040
     20 O         141.8089  137.6049  157.8299 O.2     1  UNL1       -0.2526
     21 N         139.3498  138.4429  157.8044 N.am    1  UNL1       -0.2904
     22 H         138.4685  138.4868  157.3678 H       1  UNL1        0.1509
     23 O         140.9098  140.0855  162.7574 O.3     1  UNL1       -0.4791
     24 C         142.2402  139.8444  163.4070 C.ar    1  UNL1        0.1385
     25 C         143.5036  140.2192  162.6906 C.ar    1  UNL1        0.0369
     26 C         144.8339  139.9781  163.3402 C.ar    1  UNL1        0.0033
     27 C         144.9009  139.3620  164.7062 C.ar    1  UNL1        0.0047
     28 C         143.6374  138.9872  165.4226 C.ar    1  UNL1        0.0561
     29 C         142.3071  139.2283  164.7730 C.ar    1  UNL1        0.0414
     30 C         143.7044  138.3712  166.7886 C.2     1  UNL1        0.2428
     31 N         142.9718  139.0049  167.9339 N.am    1  UNL1       -0.3253
     32 O         144.5040  137.1213  167.0094 O.2     1  UNL1       -0.2704
     33 H         142.4470  139.8252  167.7891 H       1  UNL1        0.1453
     34 H         143.0158  138.6006  168.8305 H       1  UNL1        0.1453
@<TRIPOS>BOND
     1    16    17    1
     2    17    18    1
     3    17    19   am
     4    19    20    2
     5    19    21   am
     6    10    21    1
     7    10    11    1
     8    11    12    1
     9    12    13    1
    10    13     9    1
    11     9     1    1
    12     1     2    1
    13     2     3    1
    14     3     4    1
    15     5     4    1
    16     5     6    1
    17     6     7    1
    18     7    23    1
    19    23    24    1
    20    24    25   ar
    21    25    26   ar
    22    26    27   ar
    23    27    28   ar
    24    28    30    1
    25    30    31   am
    26    30    32    2
    27    28    29   ar
    28     7     8    1
    29    13    14    1
    30    14    15    1
    31    15    10    1
    32     5     1    1
    33    29    24   ar
    34     8     2    1
    35    21    22    1
    36    31    33    1
    37    31    34    1
