@<TRIPOS>MOLECULE
*****
 26 28 0 0 0
SMALL
GASTEIGER

@<TRIPOS>ATOM
      1 C         137.7231  140.4825  162.8743 C.ar    1  UNL1        0.1384
      2 C         137.4480  139.6912  161.6301 C.ar    1  UNL1        0.0608
      3 C         137.9079  138.2670  161.5301 C.ar    1  UNL1        0.1023
      4 N         138.6430  137.6341  162.6742 N.ar    1  UNL1       -0.2436
      5 C         138.9181  138.4254  163.9184 C.ar    1  UNL1        0.0847
      6 C         139.6532  137.7925  165.0626 C.ar    1  UNL1        0.0205
      7 C         139.9283  138.5838  166.3068 C.ar    1  UNL1        0.0199
      8 C         139.4684  140.0081  166.4069 C.ar    1  UNL1        0.1057
      9 C         138.7334  140.6410  165.2627 C.ar    1  UNL1        0.0232
     10 C         138.4582  139.8496  164.0184 C.ar    1  UNL1        0.0558
     11 S         139.7436  140.7995  167.6510 S.O2    1  UNL1        0.0054
     12 O         139.1937  139.6802  168.4845 O.2     1  UNL1       -0.1687
     13 O         140.2935  141.9187  166.8175 O.2     1  UNL1       -0.1687
     14 C         140.0187  141.5908  168.8953 C.3     1  UNL1        0.1151
     15 C         139.3536  140.5278  169.7185 C.3     1  UNL1        0.0240
     16 C         140.6838  142.6538  168.0722 C.3     1  UNL1        0.0240
     17 C         140.2939  142.3821  170.1395 C.3     1  UNL1        0.0240
     18 N         137.2632  141.9068  162.9743 N.pl3   1  UNL1       -0.2004
     19 H         136.4362  142.1239  163.4623 H       1  UNL1        0.2982
     20 C         140.1356  146.2818  162.2744 C.3     1  UNL1        0.0519
     21 C         139.3837  145.0112  162.0092 C.2     1  UNL1        0.0948
     22 N         139.2059  144.3547  160.6723 N.2     1  UNL1       -0.0428
     23 N         138.3899  143.1118  160.8711 N.2     1  UNL1        0.0753
     24 C         138.0634  143.0003  162.3309 C.2     1  UNL1        0.3331
     25 C         138.6776  144.1742  163.0342 C.3     1  UNL1        0.1480
     26 C         138.5995  144.4607  164.5045 C.3     1  UNL1        0.0190
@<TRIPOS>BOND
     1    20    21    1
     2    21    22    2
     3    22    23    1
     4    23    24    2
     5    24    18    1
     6    18     1    1
     7     1     2   ar
     8     2     3   ar
     9     3     4   ar
    10     4     5   ar
    11     5     6   ar
    12     6     7   ar
    13     7     8   ar
    14     8    11    1
    15    11    12    2
    16    11    13    2
    17    11    14    1
    18    14    15    1
    19    14    16    1
    20    14    17    1
    21     8     9   ar
    22     9    10   ar
    23    24    25    1
    24    25    26    1
    25    25    21    1
    26    10     1   ar
    27    10     5   ar
    28    18    19    1
@<TRIPOS>MOLECULE
*****
 26 28 0 0 0
SMALL
GASTEIGER

@<TRIPOS>ATOM
      1 C         143.4961  142.7501  164.1224 C.ar    1  UNL1        0.1384
      2 C         144.3054  142.8352  162.8623 C.ar    1  UNL1        0.0608
      3 C         145.0542  141.6327  162.3693 C.ar    1  UNL1        0.1023
      4 N         144.9938  140.3450  163.1363 N.ar    1  UNL1       -0.2436
      5 C         144.1845  140.2599  164.3964 C.ar    1  UNL1        0.0847
      6 C         144.1241  138.9723  165.1634 C.ar    1  UNL1        0.0205
      7 C         143.3148  138.8871  166.4234 C.ar    1  UNL1        0.0199
      8 C         142.5659  140.0897  166.9165 C.ar    1  UNL1        0.1057
      9 C         142.6263  141.3773  166.1495 C.ar    1  UNL1        0.0232
     10 C         143.4357  141.4624  164.8894 C.ar    1  UNL1        0.0558
     11 S         141.7566  140.0046  168.1765 S.O2    1  UNL1        0.0054
     12 O         143.0131  139.8000  168.9698 O.2     1  UNL1       -0.1687
     13 O         140.5001  140.2091  167.3833 O.2     1  UNL1       -0.1687
     14 C         140.9473  139.9194  169.4367 C.3     1  UNL1        0.1151
     15 C         142.1766  139.5234  170.1995 C.3     1  UNL1        0.0240
     16 C         139.7180  140.3154  168.6739 C.3     1  UNL1        0.0240
     17 C         140.1380  139.8343  170.6967 C.3     1  UNL1        0.0240
     18 N         142.7472  143.9526  164.6155 N.pl3   1  UNL1       -0.2004
     19 H         143.0758  144.4501  165.3989 H       1  UNL1        0.2982
     20 C         137.6799  144.4472  163.2157 C.3     1  UNL1        0.0519
     21 C         139.1684  144.6245  163.2715 C.2     1  UNL1        0.0948
     22 N         139.9807  145.5380  162.4021 N.2     1  UNL1       -0.0428
     23 N         141.4202  145.3974  162.7998 N.2     1  UNL1        0.0753
     24 C         141.4976  144.3972  163.9149 C.2     1  UNL1        0.3331
     25 C         140.1059  143.9195  164.2064 C.3     1  UNL1        0.1480
     26 C         139.7194  142.9134  165.2497 C.3     1  UNL1        0.0190
@<TRIPOS>BOND
     1    20    21    1
     2    21    22    2
     3    22    23    1
     4    23    24    2
     5    24    18    1
     6    18     1    1
     7     1     2   ar
     8     2     3   ar
     9     3     4   ar
    10     4     5   ar
    11     5     6   ar
    12     6     7   ar
    13     7     8   ar
    14     8    11    1
    15    11    12    2
    16    11    13    2
    17    11    14    1
    18    14    15    1
    19    14    16    1
    20    14    17    1
    21     8     9   ar
    22     9    10   ar
    23    24    25    1
    24    25    26    1
    25    25    21    1
    26    10     1   ar
    27    10     5   ar
    28    18    19    1
@<TRIPOS>MOLECULE
*****
 26 28 0 0 0
SMALL
GASTEIGER

@<TRIPOS>ATOM
      1 C         138.5405  139.8851  163.7224 C.ar    1  UNL1        0.1384
      2 C         137.9885  139.2582  162.4766 C.ar    1  UNL1        0.0608
      3 C         138.6886  138.0876  161.8525 C.ar    1  UNL1        0.1023
      4 N         139.9407  137.5439  162.4743 N.ar    1  UNL1       -0.2436
      5 C         140.4927  138.1708  163.7201 C.ar    1  UNL1        0.0847
      6 C         141.7448  137.6271  164.3419 C.ar    1  UNL1        0.0205
      7 C         142.2968  138.2540  165.5878 C.ar    1  UNL1        0.0199
      8 C         141.5967  139.4247  166.2119 C.ar    1  UNL1        0.1057
      9 C         140.3446  139.9684  165.5902 C.ar    1  UNL1        0.0232
     10 C         139.7926  139.3414  164.3442 C.ar    1  UNL1        0.0558
     11 S         142.1487  140.0516  167.4578 S.O2    1  UNL1        0.0054
     12 O         143.1372  138.9304  167.5840 O.2     1  UNL1       -0.1687
     13 O         141.1602  141.1727  167.3317 O.2     1  UNL1       -0.1687
     14 C         142.7008  140.6784  168.7038 C.3     1  UNL1        0.1151
     15 C         142.4658  139.3995  169.4514 C.3     1  UNL1        0.0240
     16 C         142.9358  141.9574  167.9561 C.3     1  UNL1        0.0240
     17 C         143.2528  141.3053  169.9496 C.3     1  UNL1        0.0240
     18 N         137.8404  141.0558  164.3466 N.pl3   1  UNL1       -0.2004
     19 H         137.0081  140.9182  164.8541 H       1  UNL1        0.2982
     20 C         139.4114  145.6402  162.2498 C.3     1  UNL1        0.0519
     21 C         139.1306  144.5433  163.2337 C.2     1  UNL1        0.0948
     22 N         139.4347  144.5768  164.7021 N.2     1  UNL1       -0.0428
     23 N         138.9884  143.2745  165.2977 N.2     1  UNL1        0.0753
     24 C         138.4085  142.4360  164.1974 C.2     1  UNL1        0.3331
     25 C         138.4963  143.2202  162.9218 C.3     1  UNL1        0.1480
     26 C         138.0315  142.7619  161.5712 C.3     1  UNL1        0.0190
@<TRIPOS>BOND
     1    20    21    1
     2    21    22    2
     3    22    23    1
     4    23    24    2
     5    24    18    1
     6    18     1    1
     7     1     2   ar
     8     2     3   ar
     9     3     4   ar
    10     4     5   ar
    11     5     6   ar
    12     6     7   ar
    13     7     8   ar
    14     8    11    1
    15    11    12    2
    16    11    13    2
    17    11    14    1
    18    14    15    1
    19    14    16    1
    20    14    17    1
    21     8     9   ar
    22     9    10   ar
    23    24    25    1
    24    25    26    1
    25    25    21    1
    26    10     1   ar
    27    10     5   ar
    28    18    19    1
@<TRIPOS>MOLECULE
*****
 26 28 0 0 0
SMALL
GASTEIGER

@<TRIPOS>ATOM
      1 C         139.2492  139.4079  164.2947 C.ar    1  UNL1        0.1384
      2 C         139.1021  138.3865  163.2062 C.ar    1  UNL1        0.0608
      3 C         140.1594  137.3405  163.0114 C.ar    1  UNL1        0.1023
      4 N         141.3637  137.3159  163.9052 N.ar    1  UNL1       -0.2436
      5 C         141.5108  138.3373  164.9938 C.ar    1  UNL1        0.0847
      6 C         142.7152  138.3127  165.8876 C.ar    1  UNL1        0.0205
      7 C         142.8623  139.3341  166.9761 C.ar    1  UNL1        0.0199
      8 C         141.8050  140.3802  167.1710 C.ar    1  UNL1        0.1057
      9 C         140.6006  140.4048  166.2772 C.ar    1  UNL1        0.0232
     10 C         140.4535  139.3833  165.1885 C.ar    1  UNL1        0.0558
     11 S         141.9521  141.4016  168.2596 S.O2    1  UNL1        0.0054
     12 O         140.7819  140.8013  168.9809 O.2     1  UNL1       -0.1687
     13 O         143.1222  142.0019  167.5382 O.2     1  UNL1       -0.1687
     14 C         142.0991  142.4231  169.3482 C.3     1  UNL1        0.1151
     15 C         140.6798  142.8576  169.1323 C.3     1  UNL1        0.0240
     16 C         143.5184  141.9885  169.5641 C.3     1  UNL1        0.0240
     17 C         142.2462  143.4444  170.4368 C.3     1  UNL1        0.0240
     18 N         138.1918  140.4540  164.4896 N.pl3   1  UNL1       -0.2004
     19 H         137.5289  140.3555  165.2107 H       1  UNL1        0.2982
     20 C         138.8875  145.3181  162.5563 C.3     1  UNL1        0.0519
     21 C         138.4644  143.8859  162.6970 C.2     1  UNL1        0.0948
     22 N         137.6796  143.0956  161.6922 N.2     1  UNL1       -0.0428
     23 N         137.4820  141.7138  162.2414 N.2     1  UNL1        0.0753
     24 C         138.1446  141.6501  163.5856 C.2     1  UNL1        0.3331
     25 C         138.7518  142.9925  163.8672 C.3     1  UNL1        0.1480
     26 C         139.5127  143.3746  165.1021 C.3     1  UNL1        0.0190
@<TRIPOS>BOND
     1    20    21    1
     2    21    22    2
     3    22    23    1
     4    23    24    2
     5    24    18    1
     6    18     1    1
     7     1     2   ar
     8     2     3   ar
     9     3     4   ar
    10     4     5   ar
    11     5     6   ar
    12     6     7   ar
    13     7     8   ar
    14     8    11    1
    15    11    12    2
    16    11    13    2
    17    11    14    1
    18    14    15    1
    19    14    16    1
    20    14    17    1
    21     8     9   ar
    22     9    10   ar
    23    24    25    1
    24    25    26    1
    25    25    21    1
    26    10     1   ar
    27    10     5   ar
    28    18    19    1
@<TRIPOS>MOLECULE
*****
 26 28 0 0 0
SMALL
GASTEIGER

@<TRIPOS>ATOM
      1 C         142.0692  138.8804  164.1779 C.ar    1  UNL1        0.1384
      2 C         141.8972  138.1290  162.8912 C.ar    1  UNL1        0.0608
      3 C         140.5740  137.5065  162.5573 C.ar    1  UNL1        0.1023
      4 N         139.4227  137.6354  163.5102 N.ar    1  UNL1       -0.2436
      5 C         139.5947  138.3868  164.7969 C.ar    1  UNL1        0.0847
      6 C         138.4434  138.5156  165.7498 C.ar    1  UNL1        0.0205
      7 C         138.6154  139.2671  167.0365 C.ar    1  UNL1        0.0199
      8 C         139.9386  139.8896  167.3705 C.ar    1  UNL1        0.1057
      9 C         141.0899  139.7607  166.4176 C.ar    1  UNL1        0.0232
     10 C         140.9179  139.0093  165.1308 C.ar    1  UNL1        0.0558
     11 S         140.1106  140.6410  168.6572 S.O2    1  UNL1        0.0054
     12 O         138.9906  139.8519  169.2677 O.2     1  UNL1       -0.1687
     13 O         141.2306  141.4302  168.0467 O.2     1  UNL1       -0.1687
     14 C         140.2825  141.3925  169.9441 C.3     1  UNL1        0.1151
     15 C         140.1644  140.1081  170.7099 C.3     1  UNL1        0.0240
     16 C         140.4005  142.6768  169.1783 C.3     1  UNL1        0.0240
     17 C         140.4544  142.1439  171.2308 C.3     1  UNL1        0.0240
     18 N         143.3924  139.5030  164.5119 N.pl3   1  UNL1       -0.2004
     19 H         143.9337  139.1422  165.2509 H       1  UNL1        0.2982
     20 C         144.1857  144.4343  162.7990 C.3     1  UNL1        0.0519
     21 C         144.2556  142.9419  162.9324 C.2     1  UNL1        0.0948
     22 N         145.0608  142.0162  162.0693 N.2     1  UNL1       -0.0428
     23 N         144.8354  140.6154  162.5560 N.2     1  UNL1        0.0753
     24 C         143.8910  140.6752  163.7198 C.2     1  UNL1        0.3331
     25 C         143.5327  142.1131  163.9524 C.3     1  UNL1        0.1480
     26 C         142.6129  142.6312  165.0180 C.3     1  UNL1        0.0190
@<TRIPOS>BOND
     1    20    21    1
     2    21    22    2
     3    22    23    1
     4    23    24    2
     5    24    18    1
     6    18     1    1
     7     1     2   ar
     8     2     3   ar
     9     3     4   ar
    10     4     5   ar
    11     5     6   ar
    12     6     7   ar
    13     7     8   ar
    14     8    11    1
    15    11    12    2
    16    11    13    2
    17    11    14    1
    18    14    15    1
    19    14    16    1
    20    14    17    1
    21     8     9   ar
    22     9    10   ar
    23    24    25    1
    24    25    26    1
    25    25    21    1
    26    10     1   ar
    27    10     5   ar
    28    18    19    1
@<TRIPOS>MOLECULE
*****
 26 28 0 0 0
SMALL
GASTEIGER

@<TRIPOS>ATOM
      1 C         138.6423  142.4508  160.5865 C.ar    1  UNL1        0.1384
      2 C         138.4124  142.4506  159.1043 C.ar    1  UNL1        0.0608
      3 C         138.0811  141.1700  158.3969 C.ar    1  UNL1        0.1023
      4 N         137.9797  139.8897  159.1718 N.ar    1  UNL1       -0.2436
      5 C         138.2097  139.8899  160.6540 C.ar    1  UNL1        0.0847
      6 C         138.1083  138.6096  161.4289 C.ar    1  UNL1        0.0205
      7 C         138.3382  138.6098  162.9112 C.ar    1  UNL1        0.0199
      8 C         138.6695  139.8904  163.6186 C.ar    1  UNL1        0.1057
      9 C         138.7708  141.1708  162.8437 C.ar    1  UNL1        0.0232
     10 C         138.5409  141.1705  161.3614 C.ar    1  UNL1        0.0558
     11 S         138.8994  139.8906  165.1009 S.O2    1  UNL1        0.0054
     12 O         139.5275  141.2492  165.0032 O.2     1  UNL1       -0.1687
     13 O         138.2712  138.5320  165.1985 O.2     1  UNL1       -0.1687
     14 C         139.1293  139.8909  166.5832 C.3     1  UNL1        0.1151
     15 C         140.1686  140.9604  166.4218 C.3     1  UNL1        0.0240
     16 C         138.0900  138.8215  166.7445 C.3     1  UNL1        0.0240
     17 C         139.3592  139.8911  168.0654 C.3     1  UNL1        0.0240
     18 N         138.9736  143.7314  161.2939 N.pl3   1  UNL1       -0.2004
     19 H         138.2538  144.3509  161.5535 H       1  UNL1        0.2982
     20 C         143.3413  145.1789  163.8841 C.3     1  UNL1        0.0519
     21 C         142.4093  144.7335  162.7965 C.2     1  UNL1        0.0948
     22 N         142.7891  144.4391  161.3755 N.2     1  UNL1       -0.0428
     23 N         141.5483  144.0280  160.6397 N.2     1  UNL1        0.0753
     24 C         140.4016  144.0681  161.6059 C.2     1  UNL1        0.3331
     25 C         140.9338  144.5042  162.9388 C.3     1  UNL1        0.1480
     26 C         140.1313  144.6801  164.1938 C.3     1  UNL1        0.0190
@<TRIPOS>BOND
     1    20    21    1
     2    21    22    2
     3    22    23    1
     4    23    24    2
     5    24    18    1
     6    18     1    1
     7     1     2   ar
     8     2     3   ar
     9     3     4   ar
    10     4     5   ar
    11     5     6   ar
    12     6     7   ar
    13     7     8   ar
    14     8    11    1
    15    11    12    2
    16    11    13    2
    17    11    14    1
    18    14    15    1
    19    14    16    1
    20    14    17    1
    21     8     9   ar
    22     9    10   ar
    23    24    25    1
    24    25    26    1
    25    25    21    1
    26    10     1   ar
    27    10     5   ar
    28    18    19    1
@<TRIPOS>MOLECULE
*****
 26 28 0 0 0
SMALL
GASTEIGER

@<TRIPOS>ATOM
      1 C         140.4513  143.4292  163.6174 C.ar    1  UNL1        0.1384
      2 C         140.4879  144.2071  162.3354 C.ar    1  UNL1        0.0608
      3 C         141.7635  144.8581  161.8894 C.ar    1  UNL1        0.1023
      4 N         143.0025  144.7312  162.7254 N.ar    1  UNL1       -0.2436
      5 C         142.9659  143.9534  164.0074 C.ar    1  UNL1        0.0847
      6 C         144.2049  143.8265  164.8434 C.ar    1  UNL1        0.0205
      7 C         144.1682  143.0487  166.1253 C.ar    1  UNL1        0.0199
      8 C         142.8926  142.3976  166.5714 C.ar    1  UNL1        0.1057
      9 C         141.6536  142.5244  165.7354 C.ar    1  UNL1        0.0232
     10 C         141.6903  143.3023  164.4534 C.ar    1  UNL1        0.0558
     11 S         142.8559  141.6197  167.8534 S.O2    1  UNL1        0.0054
     12 O         142.0873  140.5284  167.1692 O.2     1  UNL1       -0.1687
     13 O         143.6246  142.7110  168.5375 O.2     1  UNL1       -0.1687
     14 C         142.8193  140.8417  169.1354 C.3     1  UNL1        0.1151
     15 C         143.5612  141.9467  169.8272 C.3     1  UNL1        0.0240
     16 C         142.0774  139.7368  168.4436 C.3     1  UNL1        0.0240
     17 C         142.7826  140.0638  170.4173 C.3     1  UNL1        0.0240
     18 N         139.1757  142.7781  164.0634 N.pl3   1  UNL1       -0.2004
     19 H         138.7412  143.0671  164.8983 H       1  UNL1        0.2982
     20 C         138.0954  138.0311  162.0188 C.3     1  UNL1        0.0519
     21 C         138.0655  139.5047  162.2977 C.2     1  UNL1        0.0948
     22 N         137.1700  140.5094  161.6353 N.2     1  UNL1       -0.0428
     23 N         137.4769  141.8578  162.2162 N.2     1  UNL1        0.0753
     24 C         138.5620  141.6866  163.2375 C.2     1  UNL1        0.3331
     25 C         138.9258  140.2323  163.2879 C.3     1  UNL1        0.1480
     26 C         139.9671  139.6140  164.1730 C.3     1  UNL1        0.0190
@<TRIPOS>BOND
     1    20    21    1
     2    21    22    2
     3    22    23    1
     4    23    24    2
     5    24    18    1
     6    18     1    1
     7     1     2   ar
     8     2     3   ar
     9     3     4   ar
    10     4     5   ar
    11     5     6   ar
    12     6     7   ar
    13     7     8   ar
    14     8    11    1
    15    11    12    2
    16    11    13    2
    17    11    14    1
    18    14    15    1
    19    14    16    1
    20    14    17    1
    21     8     9   ar
    22     9    10   ar
    23    24    25    1
    24    25    26    1
    25    25    21    1
    26    10     1   ar
    27    10     5   ar
    28    18    19    1
@<TRIPOS>MOLECULE
*****
 26 28 0 0 0
SMALL
GASTEIGER

@<TRIPOS>ATOM
      1 C         138.9184  138.7979  165.7406 C.ar    1  UNL1        0.1384
      2 C         137.7438  138.4420  166.6028 C.ar    1  UNL1        0.0608
      3 C         137.7188  138.8557  168.0444 C.ar    1  UNL1        0.1023
      4 N         138.8686  139.6255  168.6237 N.ar    1  UNL1       -0.2436
      5 C         140.0432  139.9814  167.7615 C.ar    1  UNL1        0.0847
      6 C         141.1929  140.7512  168.3409 C.ar    1  UNL1        0.0205
      7 C         142.3676  141.1071  167.4787 C.ar    1  UNL1        0.0199
      8 C         142.3926  140.6934  166.0371 C.ar    1  UNL1        0.1057
      9 C         141.2429  139.9236  165.4577 C.ar    1  UNL1        0.0232
     10 C         140.0682  139.5677  166.3200 C.ar    1  UNL1        0.0558
     11 S         143.5672  141.0493  165.1749 S.O2    1  UNL1        0.0054
     12 O         143.9764  139.6068  165.1368 O.2     1  UNL1       -0.1687
     13 O         143.1580  142.4919  165.2130 O.2     1  UNL1       -0.1687
     14 C         144.7420  141.4053  164.3127 C.3     1  UNL1        0.1151
     15 C         144.5735  142.8499  164.6794 C.3     1  UNL1        0.0240
     16 C         144.9104  139.9606  163.9459 C.3     1  UNL1        0.0240
     17 C         145.9167  141.7611  163.4505 C.3     1  UNL1        0.0240
     18 N         138.9434  138.3841  164.2990 N.pl3   1  UNL1       -0.2004
     19 H         139.2818  137.4943  164.0480 H       1  UNL1        0.2982
     20 C         137.9779  140.5978  159.6034 C.3     1  UNL1        0.0519
     21 C         138.0091  140.3437  161.0814 C.2     1  UNL1        0.0948
     22 N         137.3872  141.2079  162.1380 N.2     1  UNL1       -0.0428
     23 N         137.6615  140.5790  163.4719 N.2     1  UNL1        0.0753
     24 C         138.4529  139.3262  163.2397 C.2     1  UNL1        0.3331
     25 C         138.6678  139.1807  161.7624 C.3     1  UNL1        0.1480
     26 C         139.4108  138.0677  161.0848 C.3     1  UNL1        0.0190
@<TRIPOS>BOND
     1    20    21    1
     2    21    22    2
     3    22    23    1
     4    23    24    2
     5    24    18    1
     6    18     1    1
     7     1     2   ar
     8     2     3   ar
     9     3     4   ar
    10     4     5   ar
    11     5     6   ar
    12     6     7   ar
    13     7     8   ar
    14     8    11    1
    15    11    12    2
    16    11    13    2
    17    11    14    1
    18    14    15    1
    19    14    16    1
    20    14    17    1
    21     8     9   ar
    22     9    10   ar
    23    24    25    1
    24    25    26    1
    25    25    21    1
    26    10     1   ar
    27    10     5   ar
    28    18    19    1
@<TRIPOS>MOLECULE
*****
 26 28 0 0 0
SMALL
GASTEIGER

@<TRIPOS>ATOM
      1 C         139.8912  141.9195  163.6925 C.ar    1  UNL1        0.1384
      2 C         139.3796  141.6927  162.3008 C.ar    1  UNL1        0.0608
      3 C         138.4392  140.5576  162.0232 C.ar    1  UNL1        0.1023
      4 N         138.0103  139.6494  163.1372 N.ar    1  UNL1       -0.2436
      5 C         138.5219  139.8762  164.5289 C.ar    1  UNL1        0.0847
      6 C         138.0931  138.9679  165.6429 C.ar    1  UNL1        0.0205
      7 C         138.6047  139.1947  167.0346 C.ar    1  UNL1        0.0199
      8 C         139.5451  140.3298  167.3123 C.ar    1  UNL1        0.1057
      9 C         139.9740  141.2381  166.1982 C.ar    1  UNL1        0.0232
     10 C         139.4623  141.0112  164.8065 C.ar    1  UNL1        0.0558
     11 S         140.0567  140.5566  168.7040 S.O2    1  UNL1        0.0054
     12 O         138.8808  139.8083  169.2582 O.2     1  UNL1       -0.1687
     13 O         141.2326  141.3050  168.1497 O.2     1  UNL1       -0.1687
     14 C         140.5683  140.7834  170.0957 C.3     1  UNL1        0.1151
     15 C         141.4434  139.5715  169.9716 C.3     1  UNL1        0.0240
     16 C         139.6932  141.9953  170.2199 C.3     1  UNL1        0.0240
     17 C         141.0798  141.0102  171.4874 C.3     1  UNL1        0.0240
     18 N         140.8317  143.0547  163.9701 N.pl3   1  UNL1       -0.2004
     19 H         140.5211  143.8380  164.4792 H       1  UNL1        0.2982
     20 C         145.9203  141.7473  163.4429 C.3     1  UNL1        0.0519
     21 C         144.5844  142.3953  163.2298 C.2     1  UNL1        0.0948
     22 N         144.2574  143.4175  162.1818 N.2     1  UNL1       -0.0428
     23 N         142.8119  143.7888  162.3316 N.2     1  UNL1        0.0753
     24 C         142.2454  142.9963  163.4721 C.2     1  UNL1        0.3331
     25 C         143.3409  142.1350  164.0272 C.3     1  UNL1        0.1480
     26 C         143.2150  141.1809  165.1778 C.3     1  UNL1        0.0190
@<TRIPOS>BOND
     1    20    21    1
     2    21    22    2
     3    22    23    1
     4    23    24    2
     5    24    18    1
     6    18     1    1
     7     1     2   ar
     8     2     3   ar
     9     3     4   ar
    10     4     5   ar
    11     5     6   ar
    12     6     7   ar
    13     7     8   ar
    14     8    11    1
    15    11    12    2
    16    11    13    2
    17    11    14    1
    18    14    15    1
    19    14    16    1
    20    14    17    1
    21     8     9   ar
    22     9    10   ar
    23    24    25    1
    24    25    26    1
    25    25    21    1
    26    10     1   ar
    27    10     5   ar
    28    18    19    1
