@<TRIPOS>MOLECULE
*****
 40 45 0 0 0
SMALL
GASTEIGER

@<TRIPOS>ATOM
      1 N         141.9524  137.9509  158.8050 N.ar    1  UNL1       -0.2264
      2 C         142.1653  137.6156  160.2515 C.ar    1  UNL1        0.1212
      3 C         141.1988  138.4268  161.0624 C.ar    1  UNL1        0.1260
      4 N         140.9518  138.5117  162.5395 N.ar    1  UNL1       -0.2248
      5 C         139.8945  139.4334  163.0713 C.ar    1  UNL1        0.1472
      6 N         139.0843  140.2700  162.1262 N.ar    1  UNL1       -0.2792
      7 C         139.3313  140.1852  160.6491 C.ar    1  UNL1        0.2829
      8 O         138.5211  141.0219  159.7039 O.2     1  UNL1       -0.2652
      9 C         140.3885  139.2636  160.1172 C.ar    1  UNL1        0.1762
     10 N         140.8543  138.9694  158.7220 N.ar    1  UNL1       -0.1586
     11 C         139.6475  139.5183  164.5485 C.ar    1  UNL1        0.0478
     12 C         138.4927  138.7813  165.1594 C.ar    1  UNL1        0.0058
     13 C         138.2457  138.8662  166.6365 C.ar    1  UNL1        0.0208
     14 C         139.1535  139.6881  167.5027 C.ar    1  UNL1        0.0984
     15 N         140.3083  140.4251  166.8918 N.ar    1  UNL1       -0.2480
     16 C         140.5553  140.3402  165.4147 C.ar    1  UNL1        0.0623
     17 C         141.7101  141.0772  164.8038 C.3     1  UNL1        0.0522
     18 C         143.7716  135.3222  156.4533 C.ar    1  UNL1        0.1401
     19 C         144.2114  136.2077  155.3253 C.ar    1  UNL1        0.0370
     20 C         143.8982  137.6743  155.3572 C.ar    1  UNL1        0.0047
     21 C         143.1452  138.2553  156.5171 C.ar    1  UNL1        0.0194
     22 C         142.7054  137.3698  157.6451 C.ar    1  UNL1        0.0859
     23 C         143.0185  135.9032  157.6133 C.ar    1  UNL1        0.0560
     24 O         144.0847  133.8556  156.4214 O.3     1  UNL1       -0.4754
     25 C         144.4208  133.1327  157.6921 C.3     1  UNL1        0.2054
     26 C         144.3582  130.5458  157.4594 C.3     1  UNL1        0.0040
     27 C         145.1365  131.8155  157.6387 C.3     1  UNL1        0.0473
     28 C         138.0270  141.1917  162.6580 C.3     1  UNL1        0.1119
     29 C         138.4178  142.4871  163.3053 C.3     1  UNL1        0.0388
     30 C         137.5827  143.0526  164.4156 C.3     1  UNL1        0.0048
     31 C         137.9734  144.3481  165.0631 C.3     1  UNL1        0.0174
     32 C         139.1993  145.0780  164.6001 C.3     1  UNL1        0.0722
     33 N         140.0345  144.5125  163.4898 N.3     1  UNL1       -0.2706
     34 C         139.6437  143.2171  162.8424 C.3     1  UNL1        0.0741
     35 C         141.2605  145.2425  163.0269 C.3     1  UNL1        0.1020
     36 C         142.5027  144.4770  162.6793 C.3     1  UNL1        0.1312
     37 C         143.5769  144.0573  163.6385 C.3     1  UNL1        0.0336
     38 C         144.6270  143.3177  162.8636 C.3     1  UNL1        0.0346
     39 C         144.2018  143.2804  161.4256 C.3     1  UNL1        0.1422
     40 O         142.8889  143.9969  161.3117 O.3     1  UNL1       -0.3548
@<TRIPOS>BOND
     1    26    27    1
     2    27    25    1
     3    25    24    1
     4    24    18    1
     5    18    19   ar
     6    19    20   ar
     7    20    21   ar
     8    21    22   ar
     9    22     1    1
    10     1     2   ar
    11     2     3   ar
    12     3     4   ar
    13     4     5   ar
    14     5    11    1
    15    11    12   ar
    16    12    13   ar
    17    13    14   ar
    18    14    15   ar
    19    15    16   ar
    20    16    17    1
    21     5     6   ar
    22     6    28    1
    23    29    28    1
    24    29    30    1
    25    30    31    1
    26    31    32    1
    27    32    33    1
    28    33    35    1
    29    36    35    1
    30    36    37    1
    31    37    38    1
    32    38    39    1
    33    39    40    1
    34    33    34    1
    35     6     7   ar
    36     7     8    2
    37     7     9   ar
    38     9    10   ar
    39    22    23   ar
    40    23    18   ar
    41    10     1   ar
    42     9     3   ar
    43    16    11   ar
    44    34    29    1
    45    40    36    1
@<TRIPOS>MOLECULE
*****
 40 45 0 0 0
SMALL
GASTEIGER

@<TRIPOS>ATOM
      1 N         141.9580  137.9107  158.6838 N.ar    1  UNL1       -0.2264
      2 C         142.1995  137.6211  160.1356 C.ar    1  UNL1        0.1212
      3 C         141.2000  138.4019  160.9365 C.ar    1  UNL1        0.1260
      4 N         140.9612  138.5095  162.4134 N.ar    1  UNL1       -0.2248
      5 C         139.8632  139.3893  162.9335 C.ar    1  UNL1        0.1472
      6 N         139.0041  140.1615  161.9766 N.ar    1  UNL1       -0.2792
      7 C         139.2429  140.0539  160.4997 C.ar    1  UNL1        0.2829
      8 O         138.3838  140.8261  159.5428 O.2     1  UNL1       -0.2652
      9 C         140.3408  139.1741  159.9796 C.ar    1  UNL1        0.1762
     10 N         140.8093  138.8705  158.5874 N.ar    1  UNL1       -0.1586
     11 C         139.6244  139.4970  164.4105 C.ar    1  UNL1        0.0478
     12 C         138.5743  138.6485  165.0642 C.ar    1  UNL1        0.0058
     13 C         138.3355  138.7561  166.5412 C.ar    1  UNL1        0.0208
     14 C         139.1468  139.7122  167.3644 C.ar    1  UNL1        0.0984
     15 N         140.1969  140.5607  166.7106 N.ar    1  UNL1       -0.2480
     16 C         140.4357  140.4530  165.2337 C.ar    1  UNL1        0.0623
     17 C         141.4858  141.3015  164.5800 C.3     1  UNL1        0.0522
     18 C         143.7024  135.2881  156.2695 C.ar    1  UNL1        0.1401
     19 C         144.2733  136.2005  155.2248 C.ar    1  UNL1        0.0370
     20 C         144.0725  137.6831  155.3330 C.ar    1  UNL1        0.0047
     21 C         143.3007  138.2531  156.4861 C.ar    1  UNL1        0.0194
     22 C         142.7298  137.3406  157.5308 C.ar    1  UNL1        0.0859
     23 C         142.9306  135.8581  157.4225 C.ar    1  UNL1        0.0560
     24 O         143.9033  133.8055  156.1612 O.3     1  UNL1       -0.4754
     25 C         142.7260  132.8805  156.2530 C.3     1  UNL1        0.2054
     26 C         141.8532  133.3361  153.8487 C.3     1  UNL1        0.0040
     27 C         141.5842  133.0220  155.2906 C.3     1  UNL1        0.0473
     28 C         137.9061  141.0413  162.4967 C.3     1  UNL1        0.1119
     29 C         138.2244  142.4152  163.0076 C.3     1  UNL1        0.0388
     30 C         137.8031  142.8176  164.3898 C.3     1  UNL1        0.0048
     31 C         138.1213  144.1915  164.9008 C.3     1  UNL1        0.0174
     32 C         138.8609  145.1630  164.0295 C.3     1  UNL1        0.0722
     33 N         139.2822  144.7606  162.6472 N.3     1  UNL1       -0.2706
     34 C         138.9640  143.3868  162.1363 C.3     1  UNL1        0.0741
     35 C         140.0219  145.7322  161.7759 C.3     1  UNL1        0.1020
     36 C         140.7226  145.2491  160.5409 C.3     1  UNL1        0.1312
     37 C         140.2398  145.4167  159.1306 C.3     1  UNL1        0.0336
     38 C         141.2480  144.7847  158.2173 C.3     1  UNL1        0.0346
     39 C         142.3539  144.2265  159.0630 C.3     1  UNL1        0.1422
     40 O         142.0293  144.5135  160.4991 O.3     1  UNL1       -0.3548
@<TRIPOS>BOND
     1    26    27    1
     2    27    25    1
     3    25    24    1
     4    24    18    1
     5    18    19   ar
     6    19    20   ar
     7    20    21   ar
     8    21    22   ar
     9    22     1    1
    10     1     2   ar
    11     2     3   ar
    12     3     4   ar
    13     4     5   ar
    14     5    11    1
    15    11    12   ar
    16    12    13   ar
    17    13    14   ar
    18    14    15   ar
    19    15    16   ar
    20    16    17    1
    21     5     6   ar
    22     6    28    1
    23    29    28    1
    24    29    30    1
    25    30    31    1
    26    31    32    1
    27    32    33    1
    28    33    35    1
    29    36    35    1
    30    36    37    1
    31    37    38    1
    32    38    39    1
    33    39    40    1
    34    33    34    1
    35     6     7   ar
    36     7     8    2
    37     7     9   ar
    38     9    10   ar
    39    22    23   ar
    40    23    18   ar
    41    10     1   ar
    42     9     3   ar
    43    16    11   ar
    44    34    29    1
    45    40    36    1
@<TRIPOS>MOLECULE
*****
 40 45 0 0 0
SMALL
GASTEIGER

@<TRIPOS>ATOM
      1 N         140.6232  145.6849  158.1249 N.ar    1  UNL1       -0.2264
      2 C         141.7505  144.7082  158.2838 C.ar    1  UNL1        0.1212
      3 C         141.7816  144.2654  159.7166 C.ar    1  UNL1        0.1260
      4 N         142.6759  143.3129  160.4535 N.ar    1  UNL1       -0.2248
      5 C         142.4619  143.0634  161.9171 C.ar    1  UNL1        0.1472
      6 N         141.3539  143.7663  162.6437 N.ar    1  UNL1       -0.2792
      7 C         140.4597  144.7188  161.9068 C.ar    1  UNL1        0.2829
      8 O         139.3516  145.4218  162.6334 O.2     1  UNL1       -0.2652
      9 C         140.6735  144.9684  160.4432 C.ar    1  UNL1        0.1762
     10 N         139.9576  145.8457  159.4595 N.ar    1  UNL1       -0.1586
     11 C         143.3562  142.1108  162.6541 C.ar    1  UNL1        0.0478
     12 C         144.6108  142.6118  163.3060 C.ar    1  UNL1        0.0058
     13 C         145.5050  141.6593  164.0429 C.ar    1  UNL1        0.0208
     14 C         145.1445  140.2057  164.1279 C.ar    1  UNL1        0.0984
     15 N         143.8900  139.7046  163.4761 N.ar    1  UNL1       -0.2480
     16 C         142.9958  140.6572  162.7392 C.ar    1  UNL1        0.0623
     17 C         141.7412  140.1561  162.0873 C.3     1  UNL1        0.0522
     18 C         138.9376  148.2719  155.6317 C.ar    1  UNL1        0.1401
     19 C         139.4448  147.7670  154.3135 C.ar    1  UNL1        0.0370
     20 C         140.3449  146.5680  154.2658 C.ar    1  UNL1        0.0047
     21 C         140.7377  145.8740  155.5363 C.ar    1  UNL1        0.0194
     22 C         140.2304  146.3789  156.8545 C.ar    1  UNL1        0.0859
     23 C         139.3303  147.5779  156.9022 C.ar    1  UNL1        0.0560
     24 O         138.0375  149.4709  155.6795 O.3     1  UNL1       -0.4754
     25 C         138.6057  150.8232  155.9932 C.3     1  UNL1        0.2054
     26 C         139.3226  151.4357  153.5723 C.3     1  UNL1        0.0040
     27 C         139.5794  151.4649  155.0499 C.3     1  UNL1        0.0473
     28 C         141.1399  143.5167  164.1073 C.3     1  UNL1        0.1119
     29 C         140.2272  142.4137  164.5545 C.3     1  UNL1        0.0388
     30 C         139.0045  142.0803  163.7522 C.3     1  UNL1        0.0048
     31 C         138.0917  140.9771  164.1994 C.3     1  UNL1        0.0174
     32 C         138.4017  140.2074  165.4489 C.3     1  UNL1        0.0722
     33 N         139.6245  140.5408  166.2513 N.3     1  UNL1       -0.2706
     34 C         140.5372  141.6439  165.8041 C.3     1  UNL1        0.0741
     35 C         139.9345  139.7710  167.5009 C.3     1  UNL1        0.1020
     36 C         140.9174  140.3170  168.4937 C.3     1  UNL1        0.1312
     37 C         142.2946  139.7832  168.7559 C.3     1  UNL1        0.0336
     38 C         142.9241  140.6289  169.8228 C.3     1  UNL1        0.0346
     39 C         141.9362  141.6854  170.2201 C.3     1  UNL1        0.1422
     40 O         140.6960  141.4927  169.3986 O.3     1  UNL1       -0.3548
@<TRIPOS>BOND
     1    26    27    1
     2    27    25    1
     3    25    24    1
     4    24    18    1
     5    18    19   ar
     6    19    20   ar
     7    20    21   ar
     8    21    22   ar
     9    22     1    1
    10     1     2   ar
    11     2     3   ar
    12     3     4   ar
    13     4     5   ar
    14     5    11    1
    15    11    12   ar
    16    12    13   ar
    17    13    14   ar
    18    14    15   ar
    19    15    16   ar
    20    16    17    1
    21     5     6   ar
    22     6    28    1
    23    29    28    1
    24    29    30    1
    25    30    31    1
    26    31    32    1
    27    32    33    1
    28    33    35    1
    29    36    35    1
    30    36    37    1
    31    37    38    1
    32    38    39    1
    33    39    40    1
    34    33    34    1
    35     6     7   ar
    36     7     8    2
    37     7     9   ar
    38     9    10   ar
    39    22    23   ar
    40    23    18   ar
    41    10     1   ar
    42     9     3   ar
    43    16    11   ar
    44    34    29    1
    45    40    36    1
@<TRIPOS>MOLECULE
*****
 40 45 0 0 0
SMALL
GASTEIGER

@<TRIPOS>ATOM
      1 N         141.7186  136.7331  156.4527 N.ar    1  UNL1       -0.2264
      2 C         142.9742  136.9589  157.2417 C.ar    1  UNL1        0.1212
      3 C         142.6293  137.8092  158.4283 C.ar    1  UNL1        0.1260
      4 N         143.4629  138.3492  159.5523 N.ar    1  UNL1       -0.2248
      5 C         142.8277  139.1890  160.6208 C.ar    1  UNL1        0.1472
      6 N         141.3591  139.4886  160.5651 N.ar    1  UNL1       -0.2792
      7 C         140.5255  138.9486  159.4411 C.ar    1  UNL1        0.2829
      8 O         139.0568  139.2482  159.3855 O.2     1  UNL1       -0.2652
      9 C         141.1606  138.1088  158.3727 C.ar    1  UNL1        0.1762
     10 N         140.5977  137.4438  157.1517 N.ar    1  UNL1       -0.1586
     11 C         143.6614  139.7291  161.7448 C.ar    1  UNL1        0.0478
     12 C         143.8234  138.9350  163.0071 C.ar    1  UNL1        0.0058
     13 C         144.6570  139.4751  164.1311 C.ar    1  UNL1        0.0208
     14 C         145.3286  140.8092  163.9928 C.ar    1  UNL1        0.0984
     15 N         145.1667  141.6032  162.7306 N.ar    1  UNL1       -0.2480
     16 C         144.3331  141.0631  161.6066 C.ar    1  UNL1        0.0623
     17 C         144.1711  141.8571  160.3443 C.3     1  UNL1        0.0522
     18 C         141.4453  133.6417  153.9791 C.ar    1  UNL1        0.1401
     19 C         141.3747  134.3433  152.6552 C.ar    1  UNL1        0.0370
     20 C         141.4188  135.8415  152.5971 C.ar    1  UNL1        0.0047
     21 C         141.5334  136.6381  153.8630 C.ar    1  UNL1        0.0194
     22 C         141.6040  135.9365  155.1869 C.ar    1  UNL1        0.0859
     23 C         141.5599  134.4383  155.2450 C.ar    1  UNL1        0.0560
     24 O         141.4012  132.1435  154.0372 O.3     1  UNL1       -0.4754
     25 C         142.1635  131.4114  155.1016 C.3     1  UNL1        0.2054
     26 C         144.4775  132.1796  155.9990 C.3     1  UNL1        0.0040
     27 C         143.6615  131.3558  155.0474 C.3     1  UNL1        0.0473
     28 C         140.7239  140.3284  161.6336 C.3     1  UNL1        0.1119
     29 C         140.1545  139.6779  162.8593 C.3     1  UNL1        0.0388
     30 C         139.5970  138.2876  162.7803 C.3     1  UNL1        0.0048
     31 C         139.0276  137.6370  164.0061 C.3     1  UNL1        0.0174
     32 C         139.0155  138.3768  165.3109 C.3     1  UNL1        0.0722
     33 N         139.5730  139.7672  165.3899 N.3     1  UNL1       -0.2706
     34 C         140.1425  140.4177  164.1642 C.3     1  UNL1        0.0741
     35 C         139.5610  140.5071  166.6948 C.3     1  UNL1        0.1020
     36 C         140.4949  140.1007  167.7959 C.3     1  UNL1        0.1312
     37 C         141.9685  139.8570  167.6571 C.3     1  UNL1        0.0336
     38 C         142.5036  139.4723  169.0046 C.3     1  UNL1        0.0346
     39 C         141.3608  139.4782  169.9762 C.3     1  UNL1        0.1422
     40 O         140.1194  139.8665  169.2292 O.3     1  UNL1       -0.3548
@<TRIPOS>BOND
     1    26    27    1
     2    27    25    1
     3    25    24    1
     4    24    18    1
     5    18    19   ar
     6    19    20   ar
     7    20    21   ar
     8    21    22   ar
     9    22     1    1
    10     1     2   ar
    11     2     3   ar
    12     3     4   ar
    13     4     5   ar
    14     5    11    1
    15    11    12   ar
    16    12    13   ar
    17    13    14   ar
    18    14    15   ar
    19    15    16   ar
    20    16    17    1
    21     5     6   ar
    22     6    28    1
    23    29    28    1
    24    29    30    1
    25    30    31    1
    26    31    32    1
    27    32    33    1
    28    33    35    1
    29    36    35    1
    30    36    37    1
    31    37    38    1
    32    38    39    1
    33    39    40    1
    34    33    34    1
    35     6     7   ar
    36     7     8    2
    37     7     9   ar
    38     9    10   ar
    39    22    23   ar
    40    23    18   ar
    41    10     1   ar
    42     9     3   ar
    43    16    11   ar
    44    34    29    1
    45    40    36    1
@<TRIPOS>MOLECULE
*****
 40 45 0 0 0
SMALL
GASTEIGER

@<TRIPOS>ATOM
      1 N         141.6667  136.8076  156.5115 N.ar    1  UNL1       -0.2264
      2 C         140.3644  137.2969  157.0724 C.ar    1  UNL1        0.1212
      3 C         140.6667  138.3616  158.0849 C.ar    1  UNL1        0.1260
      4 N         139.7784  139.1993  158.9561 N.ar    1  UNL1       -0.2248
      5 C         140.3792  140.2057  159.8923 C.ar    1  UNL1        0.1472
      6 N         141.8682  140.3743  159.9571 N.ar    1  UNL1       -0.2792
      7 C         142.7565  139.5366  159.0859 C.ar    1  UNL1        0.2829
      8 O         144.2456  139.7052  159.1508 O.2     1  UNL1       -0.2652
      9 C         142.1558  138.5302  158.1497 C.ar    1  UNL1        0.1762
     10 N         142.7738  137.5698  157.1774 N.ar    1  UNL1       -0.1586
     11 C         139.4908  141.0434  160.7636 C.ar    1  UNL1        0.0478
     12 C         139.0991  140.5537  162.1262 C.ar    1  UNL1        0.0058
     13 C         138.2107  141.3915  162.9974 C.ar    1  UNL1        0.0208
     14 C         137.7142  142.7189  162.5061 C.ar    1  UNL1        0.0984
     15 N         138.1060  143.2086  161.1435 N.ar    1  UNL1       -0.2480
     16 C         138.9943  142.3708  160.2722 C.ar    1  UNL1        0.0623
     17 C         139.3860  142.8605  158.9096 C.3     1  UNL1        0.0522
     18 C         142.3975  133.2894  154.8268 C.ar    1  UNL1        0.1401
     19 C         142.1648  133.6136  153.3809 C.ar    1  UNL1        0.0370
     20 C         141.7660  135.0025  152.9785 C.ar    1  UNL1        0.0047
     21 C         141.6000  136.0671  154.0221 C.ar    1  UNL1        0.0194
     22 C         141.8327  135.7429  155.4680 C.ar    1  UNL1        0.0859
     23 C         142.2315  134.3540  155.8704 C.ar    1  UNL1        0.0560
     24 O         142.7963  131.9005  155.2292 O.3     1  UNL1       -0.4754
     25 C         144.2319  131.5914  155.5354 C.3     1  UNL1        0.2054
     26 C         145.1003  132.3445  157.8654 C.3     1  UNL1        0.0040
     27 C         144.6443  131.2570  156.9383 C.3     1  UNL1        0.0473
     28 C         142.4690  141.3806  160.8933 C.3     1  UNL1        0.1119
     29 C         143.2262  140.9206  162.1036 C.3     1  UNL1        0.0388
     30 C         144.6464  141.3568  162.3103 C.3     1  UNL1        0.0048
     31 C         145.4037  140.8968  163.5207 C.3     1  UNL1        0.0174
     32 C         144.7408  140.0006  164.5243 C.3     1  UNL1        0.0722
     33 N         143.3205  139.5644  164.3176 N.3     1  UNL1       -0.2706
     34 C         142.5633  140.0244  163.1073 C.3     1  UNL1        0.0741
     35 C         142.6575  138.6681  165.3213 C.3     1  UNL1        0.1020
     36 C         141.1640  138.5293  165.3316 C.3     1  UNL1        0.1312
     37 C         140.3735  137.4563  164.6432 C.3     1  UNL1        0.0336
     38 C         138.9197  137.7028  164.9183 C.3     1  UNL1        0.0346
     39 C         138.8116  138.9282  165.7767 C.3     1  UNL1        0.1422
     40 O         140.1987  139.4390  166.0321 O.3     1  UNL1       -0.3548
@<TRIPOS>BOND
     1    26    27    1
     2    27    25    1
     3    25    24    1
     4    24    18    1
     5    18    19   ar
     6    19    20   ar
     7    20    21   ar
     8    21    22   ar
     9    22     1    1
    10     1     2   ar
    11     2     3   ar
    12     3     4   ar
    13     4     5   ar
    14     5    11    1
    15    11    12   ar
    16    12    13   ar
    17    13    14   ar
    18    14    15   ar
    19    15    16   ar
    20    16    17    1
    21     5     6   ar
    22     6    28    1
    23    29    28    1
    24    29    30    1
    25    30    31    1
    26    31    32    1
    27    32    33    1
    28    33    35    1
    29    36    35    1
    30    36    37    1
    31    37    38    1
    32    38    39    1
    33    39    40    1
    34    33    34    1
    35     6     7   ar
    36     7     8    2
    37     7     9   ar
    38     9    10   ar
    39    22    23   ar
    40    23    18   ar
    41    10     1   ar
    42     9     3   ar
    43    16    11   ar
    44    34    29    1
    45    40    36    1
@<TRIPOS>MOLECULE
*****
 40 45 0 0 0
SMALL
GASTEIGER

@<TRIPOS>ATOM
      1 N         140.2320  144.9016  157.4743 N.ar    1  UNL1       -0.2264
      2 C         140.7832  145.3569  158.7930 C.ar    1  UNL1        0.1212
      3 C         140.3512  144.3738  159.8403 C.ar    1  UNL1        0.1260
      4 N         140.5972  144.3091  161.3185 N.ar    1  UNL1       -0.2248
      5 C         140.0250  143.1814  162.1254 C.ar    1  UNL1        0.1472
      6 N         139.2069  142.1185  161.4541 N.ar    1  UNL1       -0.2792
      7 C         138.9609  142.1832  159.9758 C.ar    1  UNL1        0.2829
      8 O         138.1428  141.1202  159.3044 O.2     1  UNL1       -0.2652
      9 C         139.5331  143.3108  159.1689 C.ar    1  UNL1        0.1762
     10 N         139.4594  143.6370  157.7067 N.ar    1  UNL1       -0.1586
     11 C         140.2710  143.1168  163.6038 C.ar    1  UNL1        0.0478
     12 C         141.5519  142.5368  164.1263 C.ar    1  UNL1        0.0058
     13 C         141.7978  142.4722  165.6046 C.ar    1  UNL1        0.0208
     14 C         140.7629  142.9875  166.5603 C.ar    1  UNL1        0.0984
     15 N         139.4821  143.5675  166.0378 N.ar    1  UNL1       -0.2480
     16 C         139.2361  143.6321  164.5595 C.ar    1  UNL1        0.0623
     17 C         137.9553  144.2121  164.0370 C.3     1  UNL1        0.0522
     18 C         139.9418  147.5964  154.5754 C.ar    1  UNL1        0.1401
     19 C         140.7970  146.9666  153.5162 C.ar    1  UNL1        0.0370
     20 C         141.4639  145.6484  153.7763 C.ar    1  UNL1        0.0047
     21 C         141.2755  144.9601  155.0958 C.ar    1  UNL1        0.0194
     22 C         140.4203  145.5899  156.1550 C.ar    1  UNL1        0.0859
     23 C         139.7534  146.9081  155.8948 C.ar    1  UNL1        0.0560
     24 O         139.2749  148.9146  154.3153 O.3     1  UNL1       -0.4754
     25 C         139.3188  149.9953  155.3545 C.3     1  UNL1        0.2054
     26 C         138.1638  149.7936  157.6729 C.3     1  UNL1        0.0040
     27 C         138.1313  150.2337  156.2393 C.3     1  UNL1        0.0473
     28 C         138.6347  140.9909  162.2609 C.3     1  UNL1        0.1119
     29 C         139.4692  139.7795  162.5541 C.3     1  UNL1        0.0388
     30 C         138.8402  138.5679  163.1758 C.3     1  UNL1        0.0048
     31 C         139.6748  137.3565  163.4690 C.3     1  UNL1        0.0174
     32 C         141.1384  137.3566  163.1405 C.3     1  UNL1        0.0722
     33 N         141.7674  138.5683  162.5188 N.3     1  UNL1       -0.2706
     34 C         140.9329  139.7796  162.2256 C.3     1  UNL1        0.0741
     35 C         143.2311  138.5683  162.1903 C.3     1  UNL1        0.1020
     36 C         144.0891  139.7322  162.5891 C.3     1  UNL1        0.1312
     37 C         144.8188  139.8845  163.8908 C.3     1  UNL1        0.0336
     38 C         145.5488  141.1946  163.8625 C.3     1  UNL1        0.0346
     39 C         145.2703  141.8520  162.5434 C.3     1  UNL1        0.1422
     40 O         144.3681  140.9483  161.7564 O.3     1  UNL1       -0.3548
@<TRIPOS>BOND
     1    26    27    1
     2    27    25    1
     3    25    24    1
     4    24    18    1
     5    18    19   ar
     6    19    20   ar
     7    20    21   ar
     8    21    22   ar
     9    22     1    1
    10     1     2   ar
    11     2     3   ar
    12     3     4   ar
    13     4     5   ar
    14     5    11    1
    15    11    12   ar
    16    12    13   ar
    17    13    14   ar
    18    14    15   ar
    19    15    16   ar
    20    16    17    1
    21     5     6   ar
    22     6    28    1
    23    29    28    1
    24    29    30    1
    25    30    31    1
    26    31    32    1
    27    32    33    1
    28    33    35    1
    29    36    35    1
    30    36    37    1
    31    37    38    1
    32    38    39    1
    33    39    40    1
    34    33    34    1
    35     6     7   ar
    36     7     8    2
    37     7     9   ar
    38     9    10   ar
    39    22    23   ar
    40    23    18   ar
    41    10     1   ar
    42     9     3   ar
    43    16    11   ar
    44    34    29    1
    45    40    36    1
@<TRIPOS>MOLECULE
*****
 40 45 0 0 0
SMALL
GASTEIGER

@<TRIPOS>ATOM
      1 N         141.2139  145.7713  156.8416 N.ar    1  UNL1       -0.2264
      2 C         142.2693  144.8499  157.3775 C.ar    1  UNL1        0.1212
      3 C         142.0290  144.6752  158.8477 C.ar    1  UNL1        0.1260
      4 N         142.7510  143.8805  159.8952 N.ar    1  UNL1       -0.2248
      5 C         142.2689  143.8992  161.3156 C.ar    1  UNL1        0.1472
      6 N         141.0650  144.7124  161.6884 N.ar    1  UNL1       -0.2792
      7 C         140.3430  145.5071  160.6409 C.ar    1  UNL1        0.2829
      8 O         139.1390  146.3204  161.0137 O.2     1  UNL1       -0.2652
      9 C         140.8250  145.4885  159.2206 C.ar    1  UNL1        0.1762
     10 N         140.3212  146.1659  157.9807 N.ar    1  UNL1       -0.1586
     11 C         142.9909  143.1044  162.3631 C.ar    1  UNL1        0.0478
     12 C         144.0180  143.7675  163.2322 C.ar    1  UNL1        0.0058
     13 C         144.7400  142.9728  164.2797 C.ar    1  UNL1        0.0208
     14 C         144.4348  141.5151  164.4581 C.ar    1  UNL1        0.0984
     15 N         143.4076  140.8520  163.5891 N.ar    1  UNL1       -0.2480
     16 C         142.6857  141.6467  162.5416 C.ar    1  UNL1        0.0623
     17 C         141.6586  140.9836  161.6725 C.3     1  UNL1        0.0522
     18 C         140.2160  147.9437  153.6738 C.ar    1  UNL1        0.1401
     19 C         140.7983  147.1154  152.5672 C.ar    1  UNL1        0.0370
     20 C         141.5192  145.8390  152.8853 C.ar    1  UNL1        0.0047
     21 C         141.6577  145.3910  154.3101 C.ar    1  UNL1        0.0194
     22 C         141.0753  146.2193  155.4168 C.ar    1  UNL1        0.0859
     23 C         140.3545  147.4957  155.0987 C.ar    1  UNL1        0.0560
     24 O         139.4951  149.2200  153.3557 O.3     1  UNL1       -0.4754
     25 C         140.0549  150.5328  153.8176 C.3     1  UNL1        0.2054
     26 C         138.3975  150.5784  155.8178 C.3     1  UNL1        0.0040
     27 C         139.6167  151.1153  155.1286 C.3     1  UNL1        0.0473
     28 C         140.5829  144.7311  163.1087 C.3     1  UNL1        0.1119
     29 C         139.7275  143.6125  163.6252 C.3     1  UNL1        0.0388
     30 C         138.4053  143.3199  162.9799 C.3     1  UNL1        0.0048
     31 C         137.5498  142.2013  163.4964 C.3     1  UNL1        0.0174
     32 C         138.0165  141.3751  164.6581 C.3     1  UNL1        0.0722
     33 N         139.3387  141.6676  165.3034 N.3     1  UNL1       -0.2706
     34 C         140.1941  142.7862  164.7870 C.3     1  UNL1        0.0741
     35 C         139.8054  140.8414  166.4652 C.3     1  UNL1        0.1020
     36 C         140.9613  139.9000  166.2997 C.3     1  UNL1        0.1312
     37 C         141.0453  138.7715  165.3149 C.3     1  UNL1        0.0336
     38 C         142.3720  138.0957  165.4964 C.3     1  UNL1        0.0346
     39 C         143.1081  138.8064  166.5933 C.3     1  UNL1        0.1422
     40 O         142.2362  139.9215  167.0897 O.3     1  UNL1       -0.3548
@<TRIPOS>BOND
     1    26    27    1
     2    27    25    1
     3    25    24    1
     4    24    18    1
     5    18    19   ar
     6    19    20   ar
     7    20    21   ar
     8    21    22   ar
     9    22     1    1
    10     1     2   ar
    11     2     3   ar
    12     3     4   ar
    13     4     5   ar
    14     5    11    1
    15    11    12   ar
    16    12    13   ar
    17    13    14   ar
    18    14    15   ar
    19    15    16   ar
    20    16    17    1
    21     5     6   ar
    22     6    28    1
    23    29    28    1
    24    29    30    1
    25    30    31    1
    26    31    32    1
    27    32    33    1
    28    33    35    1
    29    36    35    1
    30    36    37    1
    31    37    38    1
    32    38    39    1
    33    39    40    1
    34    33    34    1
    35     6     7   ar
    36     7     8    2
    37     7     9   ar
    38     9    10   ar
    39    22    23   ar
    40    23    18   ar
    41    10     1   ar
    42     9     3   ar
    43    16    11   ar
    44    34    29    1
    45    40    36    1
@<TRIPOS>MOLECULE
*****
 40 45 0 0 0
SMALL
GASTEIGER

@<TRIPOS>ATOM
      1 N         142.3090  136.7518  156.9451 N.ar    1  UNL1       -0.2264
      2 C         141.5831  138.0555  156.7924 C.ar    1  UNL1        0.1212
      3 C         141.8805  138.8956  157.9990 C.ar    1  UNL1        0.1260
      4 N         141.4405  140.2737  158.3957 N.ar    1  UNL1       -0.2248
      5 C         141.9102  140.8671  159.6908 C.ar    1  UNL1        0.1472
      6 N         142.8198  140.0827  160.5891 N.ar    1  UNL1       -0.2792
      7 C         143.2598  138.7046  160.1924 C.ar    1  UNL1        0.2829
      8 O         144.1695  137.9201  161.0908 O.2     1  UNL1       -0.2652
      9 C         142.7902  138.1111  158.8974 C.ar    1  UNL1        0.1762
     10 N         143.0550  136.7861  158.2460 N.ar    1  UNL1       -0.1586
     11 C         141.4701  142.2453  160.0875 C.ar    1  UNL1        0.0478
     12 C         140.2195  142.4299  160.8949 C.ar    1  UNL1        0.0058
     13 C         139.7795  143.8079  161.2916 C.ar    1  UNL1        0.0208
     14 C         140.5901  145.0013  160.8809 C.ar    1  UNL1        0.0984
     15 N         141.8407  144.8167  160.0736 N.ar    1  UNL1       -0.2480
     16 C         142.2807  143.4387  159.6769 C.ar    1  UNL1        0.0623
     17 C         143.5314  143.2541  158.8696 C.3     1  UNL1        0.0522
     18 C         142.3687  133.0619  155.4852 C.ar    1  UNL1        0.1401
     19 C         142.2578  133.3369  154.0148 C.ar    1  UNL1        0.0370
     20 C         142.1639  134.7503  153.5212 C.ar    1  UNL1        0.0047
     21 C         142.1810  135.8885  154.4980 C.ar    1  UNL1        0.0194
     22 C         142.2920  135.6135  155.9684 C.ar    1  UNL1        0.0859
     23 C         142.3858  134.2002  156.4620 C.ar    1  UNL1        0.0560
     24 O         142.4626  131.6486  155.9788 O.3     1  UNL1       -0.4754
     25 C         143.7916  130.9541  156.0168 C.3     1  UNL1        0.2054
     26 C         145.3236  132.0632  157.7980 C.3     1  UNL1        0.0040
     27 C         145.0305  131.7240  156.3665 C.3     1  UNL1        0.0473
     28 C         143.2895  140.6762  161.8842 C.3     1  UNL1        0.1119
     29 C         142.7001  140.2075  163.1814 C.3     1  UNL1        0.0388
     30 C         143.4638  139.2534  164.0510 C.3     1  UNL1        0.0048
     31 C         142.8744  138.7847  165.3483 C.3     1  UNL1        0.0174
     32 C         141.5211  139.2702  165.7760 C.3     1  UNL1        0.0722
     33 N         140.7573  140.2244  164.9063 N.3     1  UNL1       -0.2706
     34 C         141.3467  140.6930  163.6092 C.3     1  UNL1        0.0741
     35 C         139.4039  140.7099  165.3341 C.3     1  UNL1        0.1020
     36 C         139.0181  142.1430  165.1168 C.3     1  UNL1        0.1312
     37 C         139.7691  143.3431  165.6127 C.3     1  UNL1        0.0336
     38 C         139.0288  144.5695  165.1679 C.3     1  UNL1        0.0346
     39 C         137.8203  144.1274  164.3971 C.3     1  UNL1        0.1422
     40 O         137.8137  142.6278  164.3655 O.3     1  UNL1       -0.3548
@<TRIPOS>BOND
     1    26    27    1
     2    27    25    1
     3    25    24    1
     4    24    18    1
     5    18    19   ar
     6    19    20   ar
     7    20    21   ar
     8    21    22   ar
     9    22     1    1
    10     1     2   ar
    11     2     3   ar
    12     3     4   ar
    13     4     5   ar
    14     5    11    1
    15    11    12   ar
    16    12    13   ar
    17    13    14   ar
    18    14    15   ar
    19    15    16   ar
    20    16    17    1
    21     5     6   ar
    22     6    28    1
    23    29    28    1
    24    29    30    1
    25    30    31    1
    26    31    32    1
    27    32    33    1
    28    33    35    1
    29    36    35    1
    30    36    37    1
    31    37    38    1
    32    38    39    1
    33    39    40    1
    34    33    34    1
    35     6     7   ar
    36     7     8    2
    37     7     9   ar
    38     9    10   ar
    39    22    23   ar
    40    23    18   ar
    41    10     1   ar
    42     9     3   ar
    43    16    11   ar
    44    34    29    1
    45    40    36    1
@<TRIPOS>MOLECULE
*****
 40 45 0 0 0
SMALL
GASTEIGER

@<TRIPOS>ATOM
      1 N         141.6624  136.8659  156.8754 N.ar    1  UNL1       -0.2264
      2 C         140.4062  137.6270  157.1797 C.ar    1  UNL1        0.1212
      3 C         140.6691  138.4971  158.3730 C.ar    1  UNL1        0.1260
      4 N         139.8000  139.4640  159.1211 N.ar    1  UNL1       -0.2248
      5 C         140.3495  140.2075  160.3024 C.ar    1  UNL1        0.1472
      6 N         141.7681  139.9841  160.7354 N.ar    1  UNL1       -0.2792
      7 C         142.6373  139.0173  159.9873 C.ar    1  UNL1        0.2829
      8 O         144.0559  138.7939  160.4203 O.2     1  UNL1       -0.2652
      9 C         142.0878  138.2738  158.8060 C.ar    1  UNL1        0.1762
     10 N         142.7017  137.2656  157.8805 N.ar    1  UNL1       -0.1586
     11 C         139.4803  141.1744  161.0506 C.ar    1  UNL1        0.0478
     12 C         139.7616  142.6460  160.9792 C.ar    1  UNL1        0.0058
     13 C         138.8925  143.6128  161.7274 C.ar    1  UNL1        0.0208
     14 C         137.7420  143.1080  162.5469 C.ar    1  UNL1        0.0984
     15 N         137.4606  141.6364  162.6182 N.ar    1  UNL1       -0.2480
     16 C         138.3298  140.6696  161.8700 C.ar    1  UNL1        0.0623
     17 C         138.0485  139.1979  161.9413 C.3     1  UNL1        0.0522
     18 C         142.3823  133.4662  154.9587 C.ar    1  UNL1        0.1401
     19 C         142.2162  133.9035  153.5335 C.ar    1  UNL1        0.0370
     20 C         141.8655  135.3283  153.2223 C.ar    1  UNL1        0.0047
     21 C         141.6809  136.3157  154.3363 C.ar    1  UNL1        0.0194
     22 C         141.8470  135.8784  155.7614 C.ar    1  UNL1        0.0859
     23 C         142.1977  134.4536  156.0727 C.ar    1  UNL1        0.0560
     24 O         142.7330  132.0413  155.2699 O.3     1  UNL1       -0.4754
     25 C         144.1683  131.6055  155.2719 C.3     1  UNL1        0.2054
     26 C         144.9259  132.3863  157.6312 C.3     1  UNL1        0.0040
     27 C         144.8659  131.3275  156.5703 C.3     1  UNL1        0.0473
     28 C         142.3177  140.7276  161.9166 C.3     1  UNL1        0.1119
     29 C         142.3555  140.0710  163.2647 C.3     1  UNL1        0.0388
     30 C         143.6383  139.4882  163.7793 C.3     1  UNL1        0.0048
     31 C         143.6762  138.8316  165.1275 C.3     1  UNL1        0.0174
     32 C         142.4313  138.7578  165.9610 C.3     1  UNL1        0.0722
     33 N         141.1485  139.3407  165.4463 N.3     1  UNL1       -0.2706
     34 C         141.1106  139.9972  164.0983 C.3     1  UNL1        0.0741
     35 C         139.9035  139.2669  166.2800 C.3     1  UNL1        0.1020
     36 C         139.8144  140.0363  167.5644 C.3     1  UNL1        0.1312
     37 C         140.4956  141.3396  167.8606 C.3     1  UNL1        0.0336
     38 C         140.1307  141.7463  169.2575 C.3     1  UNL1        0.0346
     39 C         139.2240  140.6946  169.8248 C.3     1  UNL1        0.1422
     40 O         139.0285  139.6377  168.7784 O.3     1  UNL1       -0.3548
@<TRIPOS>BOND
     1    26    27    1
     2    27    25    1
     3    25    24    1
     4    24    18    1
     5    18    19   ar
     6    19    20   ar
     7    20    21   ar
     8    21    22   ar
     9    22     1    1
    10     1     2   ar
    11     2     3   ar
    12     3     4   ar
    13     4     5   ar
    14     5    11    1
    15    11    12   ar
    16    12    13   ar
    17    13    14   ar
    18    14    15   ar
    19    15    16   ar
    20    16    17    1
    21     5     6   ar
    22     6    28    1
    23    29    28    1
    24    29    30    1
    25    30    31    1
    26    31    32    1
    27    32    33    1
    28    33    35    1
    29    36    35    1
    30    36    37    1
    31    37    38    1
    32    38    39    1
    33    39    40    1
    34    33    34    1
    35     6     7   ar
    36     7     8    2
    37     7     9   ar
    38     9    10   ar
    39    22    23   ar
    40    23    18   ar
    41    10     1   ar
    42     9     3   ar
    43    16    11   ar
    44    34    29    1
    45    40    36    1
