@<TRIPOS>MOLECULE
*****
 26 28 0 0 0
SMALL
GASTEIGER

@<TRIPOS>ATOM
      1 N         139.2863  143.1075  162.8556 N.3     1  UNL1       -0.2724
      2 C         139.5534  143.6987  164.2080 C.3     1  UNL1        0.0721
      3 C         140.9444  144.1169  164.5823 C.3     1  UNL1        0.0174
      4 C         142.0684  143.9439  163.6042 C.3     1  UNL1        0.0031
      5 C         141.8013  143.3527  162.2517 C.3     1  UNL1        0.0174
      6 C         140.4103  142.9344  161.8775 C.3     1  UNL1        0.0721
      7 C         137.8953  142.6892  162.4813 C.3     1  UNL1        0.0768
      8 C         137.2479  141.5291  163.1777 C.3     1  UNL1        0.0438
      9 C         139.6426  138.3643  163.1945 C.ar    1  UNL1        0.1384
     10 C         139.7655  138.1097  164.6675 C.ar    1  UNL1        0.0369
     11 C         139.0492  138.9948  165.6440 C.ar    1  UNL1        0.0028
     12 C         138.2100  140.1346  165.1474 C.ar    1  UNL1       -0.0040
     13 C         138.0872  140.3892  163.6743 C.ar    1  UNL1       -0.0178
     14 C         138.8034  139.5041  162.6979 C.ar    1  UNL1        0.0327
     15 O         140.3589  137.4792  162.2180 O.3     1  UNL1       -0.4724
     16 C         141.8174  137.6938  161.9413 C.3     1  UNL1        0.2434
     17 F         142.2122  140.2005  162.4986 F       1  UNL1       -0.2302
     18 C         142.3128  139.0514  161.5397 C.3     1  UNL1        0.2403
     19 C         143.4594  144.3622  163.9785 C.3     1  UNL1        0.0048
     20 C         144.2321  143.5735  164.9938 C.3     1  UNL1        0.0264
     21 C         144.1425  142.0763  165.0069 C.ar    1  UNL1       -0.0222
     22 C         143.1192  141.3936  165.8654 C.ar    1  UNL1       -0.0043
     23 C         143.0296  139.8963  165.8784 C.ar    1  UNL1       -0.0003
     24 C         143.9633  139.0817  165.0331 C.ar    1  UNL1       -0.0000
     25 C         144.9866  139.7643  164.1747 C.ar    1  UNL1       -0.0003
     26 C         145.0762  141.2616  164.1616 C.ar    1  UNL1       -0.0043
@<TRIPOS>BOND
     1    17    18    1
     2    18    16    1
     3    16    15    1
     4    15     9    1
     5     9    10   ar
     6    10    11   ar
     7    11    12   ar
     8    12    13   ar
     9    13     8    1
    10     8     7    1
    11     7     1    1
    12     1     2    1
    13     2     3    1
    14     3     4    1
    15     4    19    1
    16    19    20    1
    17    20    21    1
    18    21    22   ar
    19    22    23   ar
    20    23    24   ar
    21    24    25   ar
    22    25    26   ar
    23     4     5    1
    24     5     6    1
    25    13    14   ar
    26    14     9   ar
    27     6     1    1
    28    26    21   ar
@<TRIPOS>MOLECULE
*****
 26 28 0 0 0
SMALL
GASTEIGER

@<TRIPOS>ATOM
      1 N         143.5687  139.7009  164.1279 N.3     1  UNL1       -0.2724
      2 C         142.9686  139.8123  165.4981 C.3     1  UNL1        0.0721
      3 C         141.4846  139.6907  165.6791 C.3     1  UNL1        0.0174
      4 C         140.6006  139.4577  164.4899 C.3     1  UNL1        0.0031
      5 C         141.2006  139.3462  163.1197 C.3     1  UNL1        0.0174
      6 C         142.6847  139.4678  162.9387 C.3     1  UNL1        0.0721
      7 C         145.0528  139.8225  163.9469 C.3     1  UNL1        0.0768
      8 C         145.6981  141.1765  163.9323 C.3     1  UNL1        0.0438
      9 C         143.4452  143.9561  162.2151 C.ar    1  UNL1        0.1384
     10 C         143.1787  144.8638  163.3791 C.ar    1  UNL1        0.0369
     11 C         143.7520  144.5425  164.7275 C.ar    1  UNL1        0.0028
     12 C         144.5918  143.3134  164.9119 C.ar    1  UNL1       -0.0040
     13 C         144.8583  142.4057  163.7479 C.ar    1  UNL1       -0.0178
     14 C         144.2850  142.7270  162.3995 C.ar    1  UNL1        0.0327
     15 O         142.8720  144.2774  160.8668 O.3     1  UNL1       -0.4724
     16 C         141.3887  144.2232  160.6501 C.3     1  UNL1        0.2434
     17 F         140.6790  142.3497  162.3043 F       1  UNL1       -0.2302
     18 C         140.6351  142.9577  160.9337 C.3     1  UNL1        0.2403
     19 C         139.1165  139.3360  164.6709 C.3     1  UNL1        0.0048
     20 C         138.3479  140.4435  165.3288 C.3     1  UNL1        0.0264
     21 C         138.4865  141.8514  164.8305 C.ar    1  UNL1       -0.0222
     22 C         137.6126  142.3414  163.7141 C.ar    1  UNL1       -0.0043
     23 C         137.7512  143.7494  163.2158 C.ar    1  UNL1       -0.0003
     24 C         138.7637  144.6675  163.8338 C.ar    1  UNL1       -0.0000
     25 C         139.6376  144.1776  164.9502 C.ar    1  UNL1       -0.0003
     26 C         139.4991  142.7695  165.4485 C.ar    1  UNL1       -0.0043
@<TRIPOS>BOND
     1    17    18    1
     2    18    16    1
     3    16    15    1
     4    15     9    1
     5     9    10   ar
     6    10    11   ar
     7    11    12   ar
     8    12    13   ar
     9    13     8    1
    10     8     7    1
    11     7     1    1
    12     1     2    1
    13     2     3    1
    14     3     4    1
    15     4    19    1
    16    19    20    1
    17    20    21    1
    18    21    22   ar
    19    22    23   ar
    20    23    24   ar
    21    24    25   ar
    22    25    26   ar
    23     4     5    1
    24     5     6    1
    25    13    14   ar
    26    14     9   ar
    27     6     1    1
    28    26    21   ar
@<TRIPOS>MOLECULE
*****
 26 28 0 0 0
SMALL
GASTEIGER

@<TRIPOS>ATOM
      1 N         137.9326  140.6607  161.5261 N.3     1  UNL1       -0.2724
      2 C         137.3234  141.0465  162.8413 C.3     1  UNL1        0.0721
      3 C         137.5806  142.4078  163.4164 C.3     1  UNL1        0.0174
      4 C         138.4470  143.3832  162.6762 C.3     1  UNL1        0.0031
      5 C         139.0562  142.9974  161.3610 C.3     1  UNL1        0.0174
      6 C         138.7990  141.6361  160.7859 C.3     1  UNL1        0.0721
      7 C         137.6754  139.2994  160.9509 C.3     1  UNL1        0.0768
      8 C         137.9028  138.0761  161.7886 C.3     1  UNL1        0.0438
      9 C         141.7462  137.8433  162.7501 C.ar    1  UNL1        0.1384
     10 C         141.6571  137.6937  164.2399 C.ar    1  UNL1        0.0369
     11 C         140.3166  137.6715  164.9127 C.ar    1  UNL1        0.0028
     12 C         139.0652  137.7990  164.0956 C.ar    1  UNL1       -0.0040
     13 C         139.1543  137.9486  162.6058 C.ar    1  UNL1       -0.0178
     14 C         140.4948  137.9707  161.9330 C.ar    1  UNL1        0.0327
     15 O         143.0867  137.8654  162.0773 O.3     1  UNL1       -0.4724
     16 C         143.7489  139.1752  161.7677 C.3     1  UNL1        0.2434
     17 F         144.6547  139.3263  164.1981 F       1  UNL1       -0.2302
     18 C         144.3993  139.9646  162.8649 C.3     1  UNL1        0.2403
     19 C         138.7042  144.7445  163.2514 C.3     1  UNL1        0.0048
     20 C         139.5820  144.8952  164.4583 C.3     1  UNL1        0.0264
     21 C         141.0213  144.4776  164.3957 C.ar    1  UNL1       -0.0222
     22 C         142.0318  145.3660  163.7325 C.ar    1  UNL1       -0.0043
     23 C         143.4711  144.9484  163.6699 C.ar    1  UNL1       -0.0003
     24 C         143.9000  143.6425  164.2704 C.ar    1  UNL1       -0.0000
     25 C         142.8896  142.7542  164.9336 C.ar    1  UNL1       -0.0003
     26 C         141.4502  143.1717  164.9962 C.ar    1  UNL1       -0.0043
@<TRIPOS>BOND
     1    17    18    1
     2    18    16    1
     3    16    15    1
     4    15     9    1
     5     9    10   ar
     6    10    11   ar
     7    11    12   ar
     8    12    13   ar
     9    13     8    1
    10     8     7    1
    11     7     1    1
    12     1     2    1
    13     2     3    1
    14     3     4    1
    15     4    19    1
    16    19    20    1
    17    20    21    1
    18    21    22   ar
    19    22    23   ar
    20    23    24   ar
    21    24    25   ar
    22    25    26   ar
    23     4     5    1
    24     5     6    1
    25    13    14   ar
    26    14     9   ar
    27     6     1    1
    28    26    21   ar
@<TRIPOS>MOLECULE
*****
 26 28 0 0 0
SMALL
GASTEIGER

@<TRIPOS>ATOM
      1 N         139.1409  138.9958  163.3600 N.3     1  UNL1       -0.2724
      2 C         139.1714  140.0532  162.2966 C.3     1  UNL1        0.0721
      3 C         138.7657  141.4594  162.6253 C.3     1  UNL1        0.0174
      4 C         138.3296  141.8082  164.0175 C.3     1  UNL1        0.0031
      5 C         138.2992  140.7508  165.0809 C.3     1  UNL1        0.0174
      6 C         138.7048  139.3446  164.7522 C.3     1  UNL1        0.0721
      7 C         139.5465  137.5896  163.0313 C.3     1  UNL1        0.0768
      8 C         140.8284  137.0322  163.5753 C.3     1  UNL1        0.0438
      9 C         143.8947  139.4974  163.0549 C.ar    1  UNL1        0.1384
     10 C         144.2739  139.7824  164.4779 C.ar    1  UNL1        0.0369
     11 C         143.5047  139.1507  165.6000 C.ar    1  UNL1        0.0028
     12 C         142.3562  138.2340  165.2992 C.ar    1  UNL1       -0.0040
     13 C         141.9770  137.9489  163.8762 C.ar    1  UNL1       -0.0178
     14 C         142.7462  138.5807  162.7541 C.ar    1  UNL1        0.0327
     15 O         144.6640  140.1291  161.9328 O.3     1  UNL1       -0.4724
     16 C         144.4170  141.5630  161.5681 C.3     1  UNL1        0.2434
     17 F         141.9111  141.9394  162.1414 F       1  UNL1       -0.2302
     18 C         143.0436  142.0073  161.1602 C.3     1  UNL1        0.2403
     19 C         137.9240  143.2144  164.3461 C.3     1  UNL1        0.0048
     20 C         138.8594  144.1063  165.1074 C.3     1  UNL1        0.0264
     21 C         140.3373  144.0256  164.8638 C.ar    1  UNL1       -0.0222
     22 C         141.1617  143.0017  165.5864 C.ar    1  UNL1       -0.0043
     23 C         142.6395  142.9210  165.3428 C.ar    1  UNL1       -0.0003
     24 C         143.2930  143.8640  164.3766 C.ar    1  UNL1       -0.0000
     25 C         142.4687  144.8878  163.6540 C.ar    1  UNL1       -0.0003
     26 C         140.9908  144.9686  163.8976 C.ar    1  UNL1       -0.0043
@<TRIPOS>BOND
     1    17    18    1
     2    18    16    1
     3    16    15    1
     4    15     9    1
     5     9    10   ar
     6    10    11   ar
     7    11    12   ar
     8    12    13   ar
     9    13     8    1
    10     8     7    1
    11     7     1    1
    12     1     2    1
    13     2     3    1
    14     3     4    1
    15     4    19    1
    16    19    20    1
    17    20    21    1
    18    21    22   ar
    19    22    23   ar
    20    23    24   ar
    21    24    25   ar
    22    25    26   ar
    23     4     5    1
    24     5     6    1
    25    13    14   ar
    26    14     9   ar
    27     6     1    1
    28    26    21   ar
@<TRIPOS>MOLECULE
*****
 26 28 0 0 0
SMALL
GASTEIGER

@<TRIPOS>ATOM
      1 N         142.5636  138.0433  162.7022 N.3     1  UNL1       -0.2724
      2 C         142.6842  138.2118  164.1878 C.3     1  UNL1        0.0721
      3 C         141.4632  138.1213  165.0544 C.3     1  UNL1        0.0174
      4 C         140.1217  137.8624  164.4354 C.3     1  UNL1        0.0031
      5 C         140.0011  137.6938  162.9498 C.3     1  UNL1        0.0174
      6 C         141.2220  137.7843  162.0832 C.3     1  UNL1        0.0721
      7 C         143.7846  138.1337  161.8355 C.3     1  UNL1        0.0768
      8 C         144.0721  139.3936  161.0740 C.3     1  UNL1        0.0438
      9 C         143.6934  143.2289  162.0215 C.ar    1  UNL1        0.1384
     10 C         144.5240  143.2960  163.2687 C.ar    1  UNL1        0.0369
     11 C         145.2039  142.0624  163.7844 C.ar    1  UNL1        0.0028
     12 C         145.0533  140.7616  163.0528 C.ar    1  UNL1       -0.0040
     13 C         144.2227  140.6945  161.8056 C.ar    1  UNL1       -0.0178
     14 C         143.5428  141.9281  161.2899 C.ar    1  UNL1        0.0327
     15 O         143.0135  144.4625  161.5058 O.3     1  UNL1       -0.4724
     16 C         141.5486  144.6700  161.7521 C.3     1  UNL1        0.2434
     17 F         141.7356  144.8907  164.3340 F       1  UNL1       -0.2302
     18 C         141.0839  145.2812  163.0407 C.3     1  UNL1        0.2403
     19 C         138.9007  137.7719  165.3021 C.3     1  UNL1        0.0048
     20 C         138.2034  139.0227  165.7485 C.3     1  UNL1        0.0264
     21 C         138.9990  140.1690  166.2989 C.ar    1  UNL1       -0.0222
     22 C         139.2142  141.3998  165.4688 C.ar    1  UNL1       -0.0043
     23 C         140.0097  142.5461  166.0193 C.ar    1  UNL1       -0.0003
     24 C         140.5900  142.4617  167.3999 C.ar    1  UNL1       -0.0000
     25 C         140.3749  141.2311  168.2300 C.ar    1  UNL1       -0.0003
     26 C         139.5793  140.0847  167.6796 C.ar    1  UNL1       -0.0043
@<TRIPOS>BOND
     1    17    18    1
     2    18    16    1
     3    16    15    1
     4    15     9    1
     5     9    10   ar
     6    10    11   ar
     7    11    12   ar
     8    12    13   ar
     9    13     8    1
    10     8     7    1
    11     7     1    1
    12     1     2    1
    13     2     3    1
    14     3     4    1
    15     4    19    1
    16    19    20    1
    17    20    21    1
    18    21    22   ar
    19    22    23   ar
    20    23    24   ar
    21    24    25   ar
    22    25    26   ar
    23     4     5    1
    24     5     6    1
    25    13    14   ar
    26    14     9   ar
    27     6     1    1
    28    26    21   ar
@<TRIPOS>MOLECULE
*****
 26 28 0 0 0
SMALL
GASTEIGER

@<TRIPOS>ATOM
      1 N         143.0056  143.3474  163.4460 N.3     1  UNL1       -0.2724
      2 C         142.7800  142.1959  162.5115 C.3     1  UNL1        0.0721
      3 C         143.0138  140.7911  162.9823 C.3     1  UNL1        0.0174
      4 C         143.4732  140.5377  164.3876 C.3     1  UNL1        0.0031
      5 C         143.6989  141.6891  165.3220 C.3     1  UNL1        0.0174
      6 C         143.4651  143.0940  164.8512 C.3     1  UNL1        0.0721
      7 C         142.7718  144.7523  162.9752 C.3     1  UNL1        0.0768
      8 C         141.5615  145.5072  163.4392 C.3     1  UNL1        0.0438
      9 C         138.3113  143.4742  162.4132 C.ar    1  UNL1        0.1384
     10 C         137.5828  143.4241  163.7234 C.ar    1  UNL1        0.0369
     11 C         138.1806  144.0684  164.9390 C.ar    1  UNL1        0.0028
     12 C         139.5068  144.7627  164.8442 C.ar    1  UNL1       -0.0040
     13 C         140.2352  144.8128  163.5340 C.ar    1  UNL1       -0.0178
     14 C         139.6375  144.1685  162.3184 C.ar    1  UNL1        0.0327
     15 O         137.7135  142.8299  161.1976 O.3     1  UNL1       -0.4724
     16 C         138.3874  141.6471  160.5676 C.3     1  UNL1        0.2434
     17 F         139.7168  140.6709  162.5750 F       1  UNL1       -0.2302
     18 C         138.7891  140.4747  161.4126 C.3     1  UNL1        0.2403
     19 C         143.7070  139.1327  164.8583 C.3     1  UNL1        0.0048
     20 C         142.7350  138.4857  165.7998 C.3     1  UNL1        0.0264
     21 C         141.2684  138.7772  165.6808 C.ar    1  UNL1       -0.0222
     22 C         140.4055  137.9321  164.7911 C.ar    1  UNL1       -0.0043
     23 C         138.9390  138.2236  164.6721 C.ar    1  UNL1       -0.0003
     24 C         138.3352  139.3601  165.4427 C.ar    1  UNL1       -0.0000
     25 C         139.1980  140.2052  166.3323 C.ar    1  UNL1       -0.0003
     26 C         140.6647  139.9137  166.4513 C.ar    1  UNL1       -0.0043
@<TRIPOS>BOND
     1    17    18    1
     2    18    16    1
     3    16    15    1
     4    15     9    1
     5     9    10   ar
     6    10    11   ar
     7    11    12   ar
     8    12    13   ar
     9    13     8    1
    10     8     7    1
    11     7     1    1
    12     1     2    1
    13     2     3    1
    14     3     4    1
    15     4    19    1
    16    19    20    1
    17    20    21    1
    18    21    22   ar
    19    22    23   ar
    20    23    24   ar
    21    24    25   ar
    22    25    26   ar
    23     4     5    1
    24     5     6    1
    25    13    14   ar
    26    14     9   ar
    27     6     1    1
    28    26    21   ar
@<TRIPOS>MOLECULE
*****
 26 28 0 0 0
SMALL
GASTEIGER

@<TRIPOS>ATOM
      1 N         141.1549  138.2372  162.3063 N.3     1  UNL1       -0.2724
      2 C         140.1112  139.3138  162.3439 C.3     1  UNL1        0.0721
      3 C         139.2081  139.4416  163.5347 C.3     1  UNL1        0.0174
      4 C         139.3488  138.4929  164.6880 C.3     1  UNL1        0.0031
      5 C         140.3926  137.4163  164.6505 C.3     1  UNL1        0.0174
      6 C         141.2956  137.2884  163.4596 C.3     1  UNL1        0.0721
      7 C         142.0580  138.1093  161.1155 C.3     1  UNL1        0.0768
      8 C         143.5331  138.3370  161.2649 C.3     1  UNL1        0.0438
      9 C         144.5648  141.9754  162.4682 C.ar    1  UNL1        0.1384
     10 C         145.0406  141.6889  163.8615 C.ar    1  UNL1        0.0369
     11 C         145.0139  140.2850  164.3893 C.ar    1  UNL1        0.0028
     12 C         144.5114  139.1678  163.5239 C.ar    1  UNL1       -0.0040
     13 C         144.0356  139.4543  162.1305 C.ar    1  UNL1       -0.0178
     14 C         144.0623  140.8581  161.6027 C.ar    1  UNL1        0.0327
     15 O         144.5914  143.3792  161.9403 O.3     1  UNL1       -0.4724
     16 C         144.1069  144.5116  162.7963 C.3     1  UNL1        0.2434
     17 F         142.1814  145.6340  164.1316 F       1  UNL1       -0.2302
     18 C         142.6438  144.6531  163.0952 C.3     1  UNL1        0.2403
     19 C         138.4457  138.6207  165.8789 C.3     1  UNL1        0.0048
     20 C         138.8340  139.5101  167.0226 C.3     1  UNL1        0.0264
     21 C         140.0504  140.3813  166.9157 C.ar    1  UNL1       -0.0222
     22 C         141.3876  139.8590  167.3508 C.ar    1  UNL1       -0.0043
     23 C         142.6040  140.7301  167.2439 C.ar    1  UNL1       -0.0003
     24 C         142.4833  142.1236  166.7019 C.ar    1  UNL1       -0.0000
     25 C         141.1462  142.6459  166.2668 C.ar    1  UNL1       -0.0003
     26 C         139.9297  141.7747  166.3737 C.ar    1  UNL1       -0.0043
@<TRIPOS>BOND
     1    17    18    1
     2    18    16    1
     3    16    15    1
     4    15     9    1
     5     9    10   ar
     6    10    11   ar
     7    11    12   ar
     8    12    13   ar
     9    13     8    1
    10     8     7    1
    11     7     1    1
    12     1     2    1
    13     2     3    1
    14     3     4    1
    15     4    19    1
    16    19    20    1
    17    20    21    1
    18    21    22   ar
    19    22    23   ar
    20    23    24   ar
    21    24    25   ar
    22    25    26   ar
    23     4     5    1
    24     5     6    1
    25    13    14   ar
    26    14     9   ar
    27     6     1    1
    28    26    21   ar
@<TRIPOS>MOLECULE
*****
 26 28 0 0 0
SMALL
GASTEIGER

@<TRIPOS>ATOM
      1 N         144.1553  142.2678  163.2820 N.3     1  UNL1       -0.2724
      2 C         143.2270  142.3258  162.1053 C.3     1  UNL1        0.0721
      3 C         142.0591  143.2670  162.1171 C.3     1  UNL1        0.0174
      4 C         141.8195  144.1500  163.3057 C.3     1  UNL1        0.0031
      5 C         142.7478  144.0920  164.4825 C.3     1  UNL1        0.0174
      6 C         143.9157  143.1509  164.4706 C.3     1  UNL1        0.0721
      7 C         145.3233  141.3266  163.2702 C.3     1  UNL1        0.0768
      8 C         145.2575  140.0399  164.0383 C.3     1  UNL1        0.0438
      9 C         141.8777  138.0457  163.4464 C.ar    1  UNL1        0.1384
     10 C         141.2792  138.0879  164.8211 C.ar    1  UNL1        0.0369
     11 C         142.0067  138.7808  165.9349 C.ar    1  UNL1        0.0028
     12 C         143.3328  139.4314  165.6740 C.ar    1  UNL1       -0.0040
     13 C         143.9313  139.3892  164.2993 C.ar    1  UNL1       -0.0178
     14 C         143.2038  138.6963  163.1855 C.ar    1  UNL1        0.0327
     15 O         141.1502  137.3528  162.3326 O.3     1  UNL1       -0.4724
     16 C         139.8584  137.9144  161.8170 C.3     1  UNL1        0.2434
     17 F         140.3560  140.4569  162.0122 F       1  UNL1       -0.2302
     18 C         139.8218  139.2941  161.2295 C.3     1  UNL1        0.2403
     19 C         140.6515  145.0912  163.3175 C.3     1  UNL1        0.0048
     20 C         139.4346  144.7662  164.1321 C.3     1  UNL1        0.0264
     21 C         138.9652  143.3461  164.2452 C.ar    1  UNL1       -0.0222
     22 C         139.4878  142.4686  165.3439 C.ar    1  UNL1       -0.0043
     23 C         139.0183  141.0485  165.4570 C.ar    1  UNL1       -0.0003
     24 C         138.0263  140.5057  164.4714 C.ar    1  UNL1       -0.0000
     25 C         137.5037  141.3831  163.3728 C.ar    1  UNL1       -0.0003
     26 C         137.9732  142.8033  163.2596 C.ar    1  UNL1       -0.0043
@<TRIPOS>BOND
     1    17    18    1
     2    18    16    1
     3    16    15    1
     4    15     9    1
     5     9    10   ar
     6    10    11   ar
     7    11    12   ar
     8    12    13   ar
     9    13     8    1
    10     8     7    1
    11     7     1    1
    12     1     2    1
    13     2     3    1
    14     3     4    1
    15     4    19    1
    16    19    20    1
    17    20    21    1
    18    21    22   ar
    19    22    23   ar
    20    23    24   ar
    21    24    25   ar
    22    25    26   ar
    23     4     5    1
    24     5     6    1
    25    13    14   ar
    26    14     9   ar
    27     6     1    1
    28    26    21   ar
@<TRIPOS>MOLECULE
*****
 26 28 0 0 0
SMALL
GASTEIGER

@<TRIPOS>ATOM
      1 N         143.9278  140.6548  164.2840 N.3     1  UNL1       -0.2724
      2 C         143.3313  140.8508  162.9218 C.3     1  UNL1        0.0721
      3 C         142.9463  142.2258  162.4624 C.3     1  UNL1        0.0174
      4 C         143.1579  143.4049  163.3652 C.3     1  UNL1        0.0031
      5 C         143.7544  143.2089  164.7274 C.3     1  UNL1        0.0174
      6 C         144.1394  141.8339  165.1868 C.3     1  UNL1        0.0721
      7 C         144.3129  139.2798  164.7435 C.3     1  UNL1        0.0768
      8 C         143.4751  138.5681  165.7640 C.3     1  UNL1        0.0438
      9 C         139.6248  138.2589  164.8531 C.ar    1  UNL1        0.1384
     10 C         139.0204  139.1985  165.8540 C.ar    1  UNL1        0.0369
     11 C         139.9009  139.9279  166.8249 C.ar    1  UNL1        0.0028
     12 C         141.3858  139.7178  166.7949 C.ar    1  UNL1       -0.0040
     13 C         141.9902  138.7782  165.7940 C.ar    1  UNL1       -0.0178
     14 C         141.1097  138.0488  164.8231 C.ar    1  UNL1        0.0327
     15 O         138.7444  137.5295  163.8822 O.3     1  UNL1       -0.4724
     16 C         138.7010  137.9536  162.4441 C.3     1  UNL1        0.2434
     17 F         137.4963  140.1676  163.0742 F       1  UNL1       -0.2302
     18 C         137.9046  139.1593  162.0414 C.3     1  UNL1        0.2403
     19 C         142.7728  144.7799  162.9058 C.3     1  UNL1        0.0048
     20 C         141.6246  145.4937  163.5555 C.3     1  UNL1        0.0264
     21 C         140.3222  144.7808  163.7683 C.ar    1  UNL1       -0.0222
     22 C         139.1915  144.9803  162.8029 C.ar    1  UNL1       -0.0043
     23 C         137.8890  144.2674  163.0157 C.ar    1  UNL1       -0.0003
     24 C         137.7172  143.3549  164.1938 C.ar    1  UNL1       -0.0000
     25 C         138.8478  143.1554  165.1591 C.ar    1  UNL1       -0.0003
     26 C         140.1503  143.8683  164.9463 C.ar    1  UNL1       -0.0043
@<TRIPOS>BOND
     1    17    18    1
     2    18    16    1
     3    16    15    1
     4    15     9    1
     5     9    10   ar
     6    10    11   ar
     7    11    12   ar
     8    12    13   ar
     9    13     8    1
    10     8     7    1
    11     7     1    1
    12     1     2    1
    13     2     3    1
    14     3     4    1
    15     4    19    1
    16    19    20    1
    17    20    21    1
    18    21    22   ar
    19    22    23   ar
    20    23    24   ar
    21    24    25   ar
    22    25    26   ar
    23     4     5    1
    24     5     6    1
    25    13    14   ar
    26    14     9   ar
    27     6     1    1
    28    26    21   ar
