@<TRIPOS>MOLECULE
*****
 36 38 0 0 0
SMALL
GASTEIGER

@<TRIPOS>ATOM
      1 C         139.4337  142.6538  161.7752 C.3     1  UNL1        0.1366
      2 C         140.3703  143.8236  161.8416 C.3     1  UNL1        0.0322
      3 C         140.6886  144.6009  160.5989 C.3     1  UNL1        0.0283
      4 C         140.0704  144.2084  159.2898 C.ar    1  UNL1       -0.0231
      5 C         140.3888  144.9858  158.0470 C.ar    1  UNL1       -0.0044
      6 C         139.7706  144.5934  156.7379 C.ar    1  UNL1        0.0028
      7 C         138.8339  143.4236  156.6716 C.ar    1  UNL1        0.0366
      8 C         138.5156  142.6463  157.9143 C.ar    1  UNL1        0.1345
      9 C         139.1338  143.0387  159.2234 C.ar    1  UNL1        0.0099
     10 C         138.8154  142.2614  160.4661 C.3     1  UNL1        0.0563
     11 N         140.6461  141.5582  163.7951 N.am    1  UNL1       -0.2826
     12 C         139.7667  142.6380  163.2377 C.2     1  UNL1        0.2426
     13 O         139.2204  143.7022  164.1428 O.2     1  UNL1       -0.2731
     14 H         141.0047  140.8598  163.2011 H       1  UNL1        0.1549
     15 C         141.6450  141.5111  168.1825 C.ar    1  UNL1        0.0479
     16 C         140.3492  140.9280  167.7021 C.ar    1  UNL1        0.0158
     17 C         140.0163  140.9437  166.2396 C.ar    1  UNL1        0.0159
     18 C         140.9791  141.5425  165.2576 C.ar    1  UNL1        0.0504
     19 C         142.2749  142.1256  165.7380 C.ar    1  UNL1        0.0159
     20 C         142.6079  142.1099  167.2006 C.ar    1  UNL1        0.0158
     21 N         141.9780  141.4954  169.6451 N.pl3   1  UNL1       -0.3075
     22 C         142.5003  138.9697  169.9581 C.3     1  UNL1        0.0232
     23 C         142.8468  140.4082  170.2047 C.3     1  UNL1        0.0908
     24 C         141.4423  142.5669  170.5478 C.3     1  UNL1        0.0908
     25 C         140.6579  143.7090  169.9729 C.3     1  UNL1        0.0232
     26 N         138.6127  141.4786  162.2167 N.am    1  UNL1       -0.2392
     27 C         137.2771  141.6973  162.8635 C.3     1  UNL1        0.1187
     28 C         139.1273  140.0847  162.0114 C.2     1  UNL1        0.4052
     29 O         140.4629  139.8660  161.3646 O.2     1  UNL1       -0.2262
     30 O         138.3064  138.9095  162.4529 O.3     1  UNL1       -0.4345
     31 C         138.9811  137.6856  162.9977 C.3     1  UNL1        0.2100
     32 C         139.5191  137.6862  164.3979 C.3     1  UNL1        0.0439
     33 C         141.0006  137.6891  164.6322 C.3     1  UNL1        0.0038
     34 C         138.5754  137.6840  165.5639 C.3     1  UNL1        0.0038
     35 O         137.5790  141.4766  157.8479 O.3     1  UNL1       -0.4718
     36 C         137.0043  141.0497  156.5297 C.3     1  UNL1        0.2525
@<TRIPOS>BOND
     1    22    23    1
     2    23    21    1
     3    21    24    1
     4    24    25    1
     5    21    15    1
     6    15    16   ar
     7    16    17   ar
     8    17    18   ar
     9    18    11    1
    10    11    12   am
    11    12    13    2
    12    12     1    1
    13     1    26    1
    14    26    27    1
    15    26    28   am
    16    28    29    2
    17    28    30    1
    18    30    31    1
    19    31    32    1
    20    32    33    1
    21    32    34    1
    22     1     2    1
    23     2     3    1
    24     3     4    1
    25     4     5   ar
    26     5     6   ar
    27     6     7   ar
    28     7     8   ar
    29     8    35    1
    30    35    36    1
    31     8     9   ar
    32     9    10    1
    33    18    19   ar
    34    19    20   ar
    35    20    15   ar
    36    10     1    1
    37     9     4   ar
    38    11    14    1
@<TRIPOS>MOLECULE
*****
 36 38 0 0 0
SMALL
GASTEIGER

@<TRIPOS>ATOM
      1 C         143.5170  140.3637  161.1953 C.3     1  UNL1        0.1366
      2 C         144.1235  141.7114  161.4519 C.3     1  UNL1        0.0322
      3 C         144.6822  142.5115  160.3128 C.3     1  UNL1        0.0283
      4 C         144.6345  141.9639  158.9171 C.ar    1  UNL1       -0.0231
      5 C         145.1932  142.7641  157.7780 C.ar    1  UNL1       -0.0044
      6 C         145.1455  142.2165  156.3824 C.ar    1  UNL1        0.0028
      7 C         144.5390  140.8688  156.1258 C.ar    1  UNL1        0.0366
      8 C         143.9803  140.0686  157.2649 C.ar    1  UNL1        0.1345
      9 C         144.0280  140.6162  158.6606 C.ar    1  UNL1        0.0099
     10 C         143.4693  139.8161  159.7997 C.3     1  UNL1        0.0563
     11 N         142.3065  141.3872  163.2538 N.am    1  UNL1       -0.2826
     12 C         143.3317  140.4540  162.6811 C.2     1  UNL1        0.2426
     13 O         144.1718  139.6110  163.5942 O.2     1  UNL1       -0.2731
     14 H         141.7552  141.9405  162.6545 H       1  UNL1        0.1549
     15 C         141.7508  141.6579  167.7111 C.ar    1  UNL1        0.0479
     16 C         140.6910  141.0232  166.8604 C.ar    1  UNL1        0.0158
     17 C         140.8763  140.9329  165.3746 C.ar    1  UNL1        0.0159
     18 C         142.1213  141.4775  164.7396 C.ar    1  UNL1        0.0504
     19 C         143.1812  142.1123  165.5903 C.ar    1  UNL1        0.0159
     20 C         142.9959  142.2025  167.0761 C.ar    1  UNL1        0.0158
     21 N         141.5656  141.7482  169.1969 N.pl3   1  UNL1       -0.3075
     22 C         142.2675  139.3500  169.9080 C.3     1  UNL1        0.0232
     23 C         141.3149  140.5052  169.9982 C.3     1  UNL1        0.0908
     24 C         141.6311  143.0814  169.8813 C.3     1  UNL1        0.0908
     25 C         140.4375  143.9897  169.8699 C.3     1  UNL1        0.0232
     26 N         142.8462  139.0473  161.4547 N.am    1  UNL1       -0.2392
     27 C         143.6722  137.8118  161.6578 C.3     1  UNL1        0.1187
     28 C         141.3495  138.9664  161.5111 C.2     1  UNL1        0.4052
     29 O         140.5235  140.2020  161.3080 O.2     1  UNL1       -0.2262
     30 O         140.6787  137.6501  161.7705 O.3     1  UNL1       -0.4345
     31 C         139.5840  137.5545  162.7915 C.3     1  UNL1        0.2100
     32 C         139.9220  137.5217  164.2526 C.3     1  UNL1        0.0439
     33 C         138.8366  137.6708  165.2771 C.3     1  UNL1        0.0038
     34 C         141.3455  137.3396  164.6892 C.3     1  UNL1        0.0038
     35 O         143.3738  138.7209  157.0083 O.3     1  UNL1       -0.4718
     36 C         141.9273  138.6097  156.6272 C.3     1  UNL1        0.2525
@<TRIPOS>BOND
     1    22    23    1
     2    23    21    1
     3    21    24    1
     4    24    25    1
     5    21    15    1
     6    15    16   ar
     7    16    17   ar
     8    17    18   ar
     9    18    11    1
    10    11    12   am
    11    12    13    2
    12    12     1    1
    13     1    26    1
    14    26    27    1
    15    26    28   am
    16    28    29    2
    17    28    30    1
    18    30    31    1
    19    31    32    1
    20    32    33    1
    21    32    34    1
    22     1     2    1
    23     2     3    1
    24     3     4    1
    25     4     5   ar
    26     5     6   ar
    27     6     7   ar
    28     7     8   ar
    29     8    35    1
    30    35    36    1
    31     8     9   ar
    32     9    10    1
    33    18    19   ar
    34    19    20   ar
    35    20    15   ar
    36    10     1    1
    37     9     4   ar
    38    11    14    1
@<TRIPOS>MOLECULE
*****
 36 38 0 0 0
SMALL
GASTEIGER

@<TRIPOS>ATOM
      1 C         140.4260  138.6615  161.1063 C.3     1  UNL1        0.1366
      2 C         141.8274  138.1445  161.2429 C.3     1  UNL1        0.0322
      3 C         142.6245  137.8055  160.0183 C.3     1  UNL1        0.0283
      4 C         142.0201  137.9836  158.6570 C.ar    1  UNL1       -0.0231
      5 C         142.8171  137.6445  157.4323 C.ar    1  UNL1       -0.0044
      6 C         142.2127  137.8225  156.0711 C.ar    1  UNL1        0.0028
      7 C         140.8113  138.3396  155.9345 C.ar    1  UNL1        0.0366
      8 C         140.0142  138.6786  157.1592 C.ar    1  UNL1        0.1345
      9 C         140.6186  138.5006  158.5204 C.ar    1  UNL1        0.0099
     10 C         139.8216  138.8396  159.7451 C.3     1  UNL1        0.0563
     11 N         140.6862  139.9618  163.3405 N.am    1  UNL1       -0.2826
     12 C         140.5598  138.6633  162.6003 C.2     1  UNL1        0.2426
     13 O         140.5672  137.3665  163.3542 O.2     1  UNL1       -0.2731
     14 H         140.6814  140.8130  162.8458 H       1  UNL1        0.1549
     15 C         141.0876  139.9668  167.8226 C.ar    1  UNL1        0.0479
     16 C         142.3103  140.0717  166.9600 C.ar    1  UNL1        0.0158
     17 C         142.1764  140.0701  165.4659 C.ar    1  UNL1        0.0159
     18 C         140.8199  139.9635  164.8346 C.ar    1  UNL1        0.0504
     19 C         139.5973  139.8585  165.6972 C.ar    1  UNL1        0.0159
     20 C         139.7311  139.8602  167.1913 C.ar    1  UNL1        0.0158
     21 N         141.2214  139.9684  169.3167 N.pl3   1  UNL1       -0.3075
     22 C         142.9191  138.1843  170.1438 C.3     1  UNL1        0.0232
     23 C         142.5350  139.6216  169.9523 C.3     1  UNL1        0.0908
     24 C         140.0416  140.3169  170.1749 C.3     1  UNL1        0.0908
     25 C         139.5729  141.7391  170.2640 C.3     1  UNL1        0.0232
     26 N         139.0711  139.1792  161.4886 N.am    1  UNL1       -0.2392
     27 C         137.9904  138.2223  161.8966 C.3     1  UNL1        0.1187
     28 C         138.7967  140.6536  161.4628 C.2     1  UNL1        0.4052
     29 O         139.8774  141.6105  161.0548 O.2     1  UNL1       -0.2262
     30 O         137.4418  141.1713  161.8451 O.3     1  UNL1       -0.4345
     31 C         137.2122  141.7298  163.2181 C.3     1  UNL1        0.2100
     32 C         137.8669  143.0171  163.6233 C.3     1  UNL1        0.0439
     33 C         138.4577  143.1590  164.9947 C.3     1  UNL1        0.0038
     34 C         137.9309  144.1626  162.6569 C.3     1  UNL1        0.0038
     35 O         138.6128  139.1956  157.0225 O.3     1  UNL1       -0.4718
     36 C         138.3740  140.6484  156.7358 C.3     1  UNL1        0.2525
@<TRIPOS>BOND
     1    22    23    1
     2    23    21    1
     3    21    24    1
     4    24    25    1
     5    21    15    1
     6    15    16   ar
     7    16    17   ar
     8    17    18   ar
     9    18    11    1
    10    11    12   am
    11    12    13    2
    12    12     1    1
    13     1    26    1
    14    26    27    1
    15    26    28   am
    16    28    29    2
    17    28    30    1
    18    30    31    1
    19    31    32    1
    20    32    33    1
    21    32    34    1
    22     1     2    1
    23     2     3    1
    24     3     4    1
    25     4     5   ar
    26     5     6   ar
    27     6     7   ar
    28     7     8   ar
    29     8    35    1
    30    35    36    1
    31     8     9   ar
    32     9    10    1
    33    18    19   ar
    34    19    20   ar
    35    20    15   ar
    36    10     1    1
    37     9     4   ar
    38    11    14    1
@<TRIPOS>MOLECULE
*****
 36 38 0 0 0
SMALL
GASTEIGER

@<TRIPOS>ATOM
      1 C         142.1774  143.3483  160.9747 C.3     1  UNL1        0.1366
      2 C         143.4835  142.7019  161.3300 C.3     1  UNL1        0.0322
      3 C         144.4569  142.3344  160.2496 C.3     1  UNL1        0.0283
      4 C         144.1242  142.6133  158.8138 C.ar    1  UNL1       -0.0231
      5 C         145.0977  142.2458  157.7333 C.ar    1  UNL1       -0.0044
      6 C         144.7651  142.5248  156.2975 C.ar    1  UNL1        0.0028
      7 C         143.4590  143.1712  155.9422 C.ar    1  UNL1        0.0366
      8 C         142.4856  143.5387  157.0226 C.ar    1  UNL1        0.1345
      9 C         142.8182  143.2598  158.4584 C.ar    1  UNL1        0.0099
     10 C         141.8448  143.6273  159.5389 C.3     1  UNL1        0.0563
     11 N         142.1301  141.9669  163.1746 N.am    1  UNL1       -0.2826
     12 C         142.0398  143.2865  162.4670 C.2     1  UNL1        0.2426
     13 O         141.8119  144.5443  163.2519 O.2     1  UNL1       -0.2731
     14 H         142.2797  141.1414  162.6595 H       1  UNL1        0.1549
     15 C         141.7170  141.7817  167.6517 C.ar    1  UNL1        0.0479
     16 C         140.5594  141.4045  166.7756 C.ar    1  UNL1        0.0158
     17 C         140.6972  141.4662  165.2831 C.ar    1  UNL1        0.0159
     18 C         141.9924  141.9052  164.6670 C.ar    1  UNL1        0.0504
     19 C         143.1500  142.2824  165.5432 C.ar    1  UNL1        0.0159
     20 C         143.0123  142.2206  167.0356 C.ar    1  UNL1        0.0158
     21 N         141.5794  141.7199  169.1442 N.pl3   1  UNL1       -0.3075
     22 C         140.5160  143.9653  169.9042 C.3     1  UNL1        0.0232
     23 C         141.6455  142.9795  169.9561 C.3     1  UNL1        0.0908
     24 C         141.3756  140.3988  169.8245 C.3     1  UNL1        0.0908
     25 C         142.4788  139.3824  169.8347 C.3     1  UNL1        0.0232
     26 N         140.8236  143.9733  161.1376 N.am    1  UNL1       -0.2392
     27 C         140.6633  145.4593  161.0102 C.3     1  UNL1        0.1187
     28 C         139.6300  143.1124  161.4278 C.2     1  UNL1        0.4052
     29 O         139.7904  141.6264  161.5552 O.2     1  UNL1       -0.2262
     30 O         138.2762  143.7374  161.5908 O.3     1  UNL1       -0.4345
     31 C         137.9667  144.5480  162.8143 C.3     1  UNL1        0.2100
     32 C         138.0697  143.9230  164.1739 C.3     1  UNL1        0.0439
     33 C         137.5339  142.5414  164.4069 C.3     1  UNL1        0.0038
     34 C         138.7085  144.6795  165.3007 C.3     1  UNL1        0.0038
     35 O         141.1795  144.1852  156.6672 O.3     1  UNL1       -0.4718
     36 C         141.1101  145.6684  156.4548 C.3     1  UNL1        0.2525
@<TRIPOS>BOND
     1    22    23    1
     2    23    21    1
     3    21    24    1
     4    24    25    1
     5    21    15    1
     6    15    16   ar
     7    16    17   ar
     8    17    18   ar
     9    18    11    1
    10    11    12   am
    11    12    13    2
    12    12     1    1
    13     1    26    1
    14    26    27    1
    15    26    28   am
    16    28    29    2
    17    28    30    1
    18    30    31    1
    19    31    32    1
    20    32    33    1
    21    32    34    1
    22     1     2    1
    23     2     3    1
    24     3     4    1
    25     4     5   ar
    26     5     6   ar
    27     6     7   ar
    28     7     8   ar
    29     8    35    1
    30    35    36    1
    31     8     9   ar
    32     9    10    1
    33    18    19   ar
    34    19    20   ar
    35    20    15   ar
    36    10     1    1
    37     9     4   ar
    38    11    14    1
@<TRIPOS>MOLECULE
*****
 36 38 0 0 0
SMALL
GASTEIGER

@<TRIPOS>ATOM
      1 C         139.4960  142.4651  163.2734 C.3     1  UNL1        0.1366
      2 C         138.3359  141.5995  162.8797 C.3     1  UNL1        0.0322
      3 C         137.8256  140.5534  163.8259 C.3     1  UNL1        0.0283
      4 C         138.4754  140.3729  165.1658 C.ar    1  UNL1       -0.0231
      5 C         137.9651  139.3268  166.1120 C.ar    1  UNL1       -0.0044
      6 C         138.6149  139.1463  167.4518 C.ar    1  UNL1        0.0028
      7 C         139.7750  140.0119  167.8455 C.ar    1  UNL1        0.0366
      8 C         140.2853  141.0580  166.8993 C.ar    1  UNL1        0.1345
      9 C         139.6355  141.2385  165.5594 C.ar    1  UNL1        0.0099
     10 C         140.1458  142.2846  164.6132 C.3     1  UNL1        0.0563
     11 N         140.0205  142.5429  160.7299 N.am    1  UNL1       -0.2826
     12 C         139.2153  143.0122  161.9052 C.2     1  UNL1        0.2426
     13 O         138.1292  144.0288  161.7124 O.2     1  UNL1       -0.2731
     14 H         140.7333  141.8757  160.8565 H       1  UNL1        0.1549
     15 C         139.1782  144.1847  156.6257 C.ar    1  UNL1        0.0479
     16 C         140.1586  144.8784  157.5242 C.ar    1  UNL1        0.0158
     17 C         140.4393  144.3311  158.8924 C.ar    1  UNL1        0.0159
     18 C         139.7397  143.0901  159.3618 C.ar    1  UNL1        0.0504
     19 C         138.7593  142.3964  158.4632 C.ar    1  UNL1        0.0159
     20 C         138.4785  142.9437  157.0951 C.ar    1  UNL1        0.0158
     21 N         138.8974  144.7319  155.2575 N.pl3   1  UNL1       -0.3075
     22 C         140.4659  146.4552  154.1088 C.3     1  UNL1        0.0232
     23 C         140.0315  145.0357  154.3241 C.3     1  UNL1        0.0908
     24 C         137.4825  144.9753  154.8230 C.3     1  UNL1        0.0908
     25 C         136.7998  143.9998  153.9106 C.3     1  UNL1        0.0232
     26 N         140.5585  143.5206  163.1919 N.am    1  UNL1       -0.2392
     27 C         140.2520  144.9274  163.6127 C.3     1  UNL1        0.1187
     28 C         141.9276  143.1696  162.6896 C.2     1  UNL1        0.4052
     29 O         142.2342  141.7628  162.2687 O.2     1  UNL1       -0.2262
     30 O         142.9902  144.2251  162.6081 O.3     1  UNL1       -0.4345
     31 C         144.4296  143.8580  162.8161 C.3     1  UNL1        0.2100
     32 C         144.8275  143.0225  163.9966 C.3     1  UNL1        0.0439
     33 C         145.5973  141.7517  163.7907 C.3     1  UNL1        0.0038
     34 C         144.4555  143.4578  165.3830 C.3     1  UNL1        0.0038
     35 O         141.4453  141.9236  167.2929 O.3     1  UNL1       -0.4718
     36 C         142.6370  141.3170  167.9727 C.3     1  UNL1        0.2525
@<TRIPOS>BOND
     1    22    23    1
     2    23    21    1
     3    21    24    1
     4    24    25    1
     5    21    15    1
     6    15    16   ar
     7    16    17   ar
     8    17    18   ar
     9    18    11    1
    10    11    12   am
    11    12    13    2
    12    12     1    1
    13     1    26    1
    14    26    27    1
    15    26    28   am
    16    28    29    2
    17    28    30    1
    18    30    31    1
    19    31    32    1
    20    32    33    1
    21    32    34    1
    22     1     2    1
    23     2     3    1
    24     3     4    1
    25     4     5   ar
    26     5     6   ar
    27     6     7   ar
    28     7     8   ar
    29     8    35    1
    30    35    36    1
    31     8     9   ar
    32     9    10    1
    33    18    19   ar
    34    19    20   ar
    35    20    15   ar
    36    10     1    1
    37     9     4   ar
    38    11    14    1
@<TRIPOS>MOLECULE
*****
 36 38 0 0 0
SMALL
GASTEIGER

@<TRIPOS>ATOM
      1 C         143.2689  140.2725  161.4368 C.3     1  UNL1        0.1366
      2 C         142.7799  138.8762  161.6841 C.3     1  UNL1        0.0322
      3 C         142.5905  137.9331  160.5332 C.3     1  UNL1        0.0283
      4 C         142.8901  138.3863  159.1350 C.ar    1  UNL1       -0.0231
      5 C         142.7007  137.4431  157.9841 C.ar    1  UNL1       -0.0044
      6 C         143.0003  137.8962  156.5859 C.ar    1  UNL1        0.0028
      7 C         143.4894  139.2926  156.3387 C.ar    1  UNL1        0.0366
      8 C         143.6788  140.2357  157.4896 C.ar    1  UNL1        0.1345
      9 C         143.3791  139.7825  158.8878 C.ar    1  UNL1        0.0099
     10 C         143.5685  140.7256  160.0387 C.3     1  UNL1        0.0563
     11 N         142.0661  141.1695  163.5578 N.am    1  UNL1       -0.2826
     12 C         143.1214  140.3087  162.9291 C.2     1  UNL1        0.2426
     13 O         144.0291  139.4839  163.7927 O.2     1  UNL1       -0.2731
     14 H         141.4703  141.7109  162.9911 H       1  UNL1        0.1549
     15 C         141.6236  141.2778  168.0347 C.ar    1  UNL1        0.0479
     16 C         140.6139  140.5487  167.1987 C.ar    1  UNL1        0.0158
     17 C         140.7614  140.5127  165.7064 C.ar    1  UNL1        0.0159
     18 C         141.9186  141.2056  165.0502 C.ar    1  UNL1        0.0504
     19 C         142.9283  141.9347  165.8862 C.ar    1  UNL1        0.0159
     20 C         142.7808  141.9708  167.3785 C.ar    1  UNL1        0.0158
     21 N         141.4761  141.3139  169.5271 N.pl3   1  UNL1       -0.3075
     22 C         142.4745  138.9638  170.0068 C.3     1  UNL1        0.0232
     23 C         141.4696  140.0351  170.3111 C.3     1  UNL1        0.0908
     24 C         141.3351  142.6286  170.2352 C.3     1  UNL1        0.0908
     25 C         140.4550  143.6991  169.6610 C.3     1  UNL1        0.0232
     26 N         143.7067  141.6813  161.7078 N.am    1  UNL1       -0.2392
     27 C         145.1014  141.9541  162.1879 C.3     1  UNL1        0.1187
     28 C         142.7499  142.8175  161.4987 C.2     1  UNL1        0.4052
     29 O         141.3552  142.5447  161.0186 O.2     1  UNL1       -0.2262
     30 O         143.1877  144.2263  161.7697 O.3     1  UNL1       -0.4345
     31 C         142.6787  144.9501  162.9809 C.3     1  UNL1        0.2100
     32 C         141.2024  145.1079  163.1949 C.3     1  UNL1        0.0439
     33 C         140.5539  144.5192  164.4126 C.3     1  UNL1        0.0038
     34 C         140.3747  145.8545  162.1912 C.3     1  UNL1        0.0038
     35 O         144.1678  141.6320  157.2423 O.3     1  UNL1       -0.4718
     36 C         145.6308  141.8881  157.0324 C.3     1  UNL1        0.2525
@<TRIPOS>BOND
     1    22    23    1
     2    23    21    1
     3    21    24    1
     4    24    25    1
     5    21    15    1
     6    15    16   ar
     7    16    17   ar
     8    17    18   ar
     9    18    11    1
    10    11    12   am
    11    12    13    2
    12    12     1    1
    13     1    26    1
    14    26    27    1
    15    26    28   am
    16    28    29    2
    17    28    30    1
    18    30    31    1
    19    31    32    1
    20    32    33    1
    21    32    34    1
    22     1     2    1
    23     2     3    1
    24     3     4    1
    25     4     5   ar
    26     5     6   ar
    27     6     7   ar
    28     7     8   ar
    29     8    35    1
    30    35    36    1
    31     8     9   ar
    32     9    10    1
    33    18    19   ar
    34    19    20   ar
    35    20    15   ar
    36    10     1    1
    37     9     4   ar
    38    11    14    1
@<TRIPOS>MOLECULE
*****
 36 38 0 0 0
SMALL
GASTEIGER

@<TRIPOS>ATOM
      1 C         142.2948  143.6465  161.5869 C.3     1  UNL1        0.1366
      2 C         141.1628  144.5956  161.8472 C.3     1  UNL1        0.0322
      3 C         140.5213  145.3285  160.7065 C.3     1  UNL1        0.0283
      4 C         141.0117  145.1123  159.3055 C.ar    1  UNL1       -0.0231
      5 C         140.3701  145.8452  158.1648 C.ar    1  UNL1       -0.0044
      6 C         140.8605  145.6291  156.7638 C.ar    1  UNL1        0.0028
      7 C         141.9926  144.6799  156.5036 C.ar    1  UNL1        0.0366
      8 C         142.6341  143.9470  157.6443 C.ar    1  UNL1        0.1345
      9 C         142.1437  144.1632  159.0452 C.ar    1  UNL1        0.0099
     10 C         142.7852  143.4303  160.1859 C.3     1  UNL1        0.0563
     11 N         141.8647  142.1877  163.6933 N.am    1  UNL1       -0.2826
     12 C         142.1842  143.5174  163.0772 C.2     1  UNL1        0.2426
     13 O         142.3932  144.7183  163.9515 O.2     1  UNL1       -0.2731
     14 H         141.7275  141.3995  163.1195 H       1  UNL1        0.1549
     15 C         141.5332  141.8009  168.1644 C.ar    1  UNL1        0.0479
     16 C         142.8467  142.1655  167.5385 C.ar    1  UNL1        0.0158
     17 C         142.9571  142.2944  166.0481 C.ar    1  UNL1        0.0159
     18 C         141.7541  142.0587  165.1837 C.ar    1  UNL1        0.0504
     19 C         140.4406  141.6941  165.8096 C.ar    1  UNL1        0.0159
     20 C         140.3302  141.5652  167.3000 C.ar    1  UNL1        0.0158
     21 N         141.4226  141.6720  169.6548 N.pl3   1  UNL1       -0.3075
     22 C         140.4064  144.0418  169.9728 C.3     1  UNL1        0.0232
     23 C         140.5536  142.6198  170.4270 C.3     1  UNL1        0.0908
     24 C         142.1811  140.5953  170.3727 C.3     1  UNL1        0.0908
     25 C         142.2959  139.2277  169.7674 C.3     1  UNL1        0.0232
     26 N         143.3884  142.6526  161.8442 N.am    1  UNL1       -0.2392
     27 C         144.7226  143.1188  162.3468 C.3     1  UNL1        0.1187
     28 C         143.1479  141.1925  161.5989 C.2     1  UNL1        0.4052
     29 O         141.8137  140.7262  161.0962 O.2     1  UNL1       -0.2262
     30 O         144.2415  140.1986  161.8562 O.3     1  UNL1       -0.4345
     31 C         143.9174  138.8690  162.4703 C.3     1  UNL1        0.2100
     32 C         143.3292  138.8029  163.8486 C.3     1  UNL1        0.0439
     33 C         144.1883  139.0861  165.0451 C.3     1  UNL1        0.0038
     34 C         141.8818  138.4536  164.0303 C.3     1  UNL1        0.0038
     35 O         143.7661  142.9980  157.3840 O.3     1  UNL1       -0.4718
     36 C         143.4802  141.5885  156.9577 C.3     1  UNL1        0.2525
@<TRIPOS>BOND
     1    22    23    1
     2    23    21    1
     3    21    24    1
     4    24    25    1
     5    21    15    1
     6    15    16   ar
     7    16    17   ar
     8    17    18   ar
     9    18    11    1
    10    11    12   am
    11    12    13    2
    12    12     1    1
    13     1    26    1
    14    26    27    1
    15    26    28   am
    16    28    29    2
    17    28    30    1
    18    30    31    1
    19    31    32    1
    20    32    33    1
    21    32    34    1
    22     1     2    1
    23     2     3    1
    24     3     4    1
    25     4     5   ar
    26     5     6   ar
    27     6     7   ar
    28     7     8   ar
    29     8    35    1
    30    35    36    1
    31     8     9   ar
    32     9    10    1
    33    18    19   ar
    34    19    20   ar
    35    20    15   ar
    36    10     1    1
    37     9     4   ar
    38    11    14    1
@<TRIPOS>MOLECULE
*****
 36 38 0 0 0
SMALL
GASTEIGER

@<TRIPOS>ATOM
      1 C         140.1530  142.2987  162.2437 C.3     1  UNL1        0.1366
      2 C         140.8481  143.4534  161.5853 C.3     1  UNL1        0.0322
      3 C         142.0575  144.0657  162.2273 C.3     1  UNL1        0.0283
      4 C         142.5718  143.5233  163.5279 C.ar    1  UNL1       -0.0231
      5 C         143.7813  144.1357  164.1699 C.ar    1  UNL1       -0.0044
      6 C         144.2957  143.5934  165.4705 C.ar    1  UNL1        0.0028
      7 C         143.6005  142.4387  166.1289 C.ar    1  UNL1        0.0366
      8 C         142.3911  141.8264  165.4868 C.ar    1  UNL1        0.1345
      9 C         141.8767  142.3687  164.1863 C.ar    1  UNL1        0.0099
     10 C         140.6673  141.7564  163.5442 C.3     1  UNL1        0.0563
     11 N         139.7092  141.8341  159.7263 N.am    1  UNL1       -0.2826
     12 C         139.2936  142.4594  161.0249 C.2     1  UNL1        0.2426
     13 O         138.0184  143.2453  161.1047 O.2     1  UNL1       -0.2731
     14 H         140.5461  141.3183  159.6739 H       1  UNL1        0.1549
     15 C         137.1305  142.3162  156.0700 C.ar    1  UNL1        0.0479
     16 C         136.9770  141.1051  156.9416 C.ar    1  UNL1        0.0158
     17 C         137.8366  140.9445  158.1605 C.ar    1  UNL1        0.0159
     18 C         138.8496  141.9949  158.5075 C.ar    1  UNL1        0.0504
     19 C         139.0032  143.2059  157.6358 C.ar    1  UNL1        0.0159
     20 C         138.1435  143.3665  156.4170 C.ar    1  UNL1        0.0158
     21 N         136.2710  142.4769  154.8512 N.pl3   1  UNL1       -0.3075
     22 C         137.4233  143.1919  152.6352 C.3     1  UNL1        0.0232
     23 C         136.5959  143.5347  153.8386 C.3     1  UNL1        0.0908
     24 C         135.0866  141.5798  154.6452 C.3     1  UNL1        0.0908
     25 C         135.2011  140.3796  153.7527 C.3     1  UNL1        0.0232
     26 N         139.1594  141.1998  162.4788 N.am    1  UNL1       -0.2392
     27 C         137.8921  141.4827  163.2298 C.3     1  UNL1        0.1187
     28 C         139.4331  139.8181  161.9631 C.2     1  UNL1        0.4052
     29 O         140.7004  139.5353  161.2122 O.2     1  UNL1       -0.2262
     30 O         138.4395  138.7193  162.1983 O.3     1  UNL1       -0.4345
     31 C         138.7752  137.5910  163.1278 C.3     1  UNL1        0.2100
     32 C         139.5431  137.8604  164.3878 C.3     1  UNL1        0.0439
     33 C         138.8909  138.5953  165.5212 C.3     1  UNL1        0.0038
     34 C         140.9635  137.3950  164.5145 C.3     1  UNL1        0.0038
     35 O         141.6960  140.6717  166.1452 O.3     1  UNL1       -0.4718
     36 C         142.4547  139.7697  167.0730 C.3     1  UNL1        0.2525
@<TRIPOS>BOND
     1    22    23    1
     2    23    21    1
     3    21    24    1
     4    24    25    1
     5    21    15    1
     6    15    16   ar
     7    16    17   ar
     8    17    18   ar
     9    18    11    1
    10    11    12   am
    11    12    13    2
    12    12     1    1
    13     1    26    1
    14    26    27    1
    15    26    28   am
    16    28    29    2
    17    28    30    1
    18    30    31    1
    19    31    32    1
    20    32    33    1
    21    32    34    1
    22     1     2    1
    23     2     3    1
    24     3     4    1
    25     4     5   ar
    26     5     6   ar
    27     6     7   ar
    28     7     8   ar
    29     8    35    1
    30    35    36    1
    31     8     9   ar
    32     9    10    1
    33    18    19   ar
    34    19    20   ar
    35    20    15   ar
    36    10     1    1
    37     9     4   ar
    38    11    14    1
@<TRIPOS>MOLECULE
*****
 36 38 0 0 0
SMALL
GASTEIGER

@<TRIPOS>ATOM
      1 C         141.5319  139.5520  165.4175 C.3     1  UNL1        0.1366
      2 C         140.1323  139.0329  165.2707 C.3     1  UNL1        0.0322
      3 C         139.1663  139.1474  166.4125 C.3     1  UNL1        0.0283
      4 C         139.6000  139.7809  167.7011 C.ar    1  UNL1       -0.0231
      5 C         138.6340  139.8954  168.8430 C.ar    1  UNL1       -0.0044
      6 C         139.0676  140.5289  170.1316 C.ar    1  UNL1        0.0028
      7 C         140.4673  141.0479  170.2784 C.ar    1  UNL1        0.0366
      8 C         141.4333  140.9335  169.1366 C.ar    1  UNL1        0.1345
      9 C         140.9996  140.3000  167.8480 C.ar    1  UNL1        0.0099
     10 C         141.9656  140.1855  166.7061 C.3     1  UNL1        0.0563
     11 N         141.4892  139.9905  162.8570 N.am    1  UNL1       -0.2826
     12 C         141.5916  139.0366  164.0101 C.2     1  UNL1        0.2426
     13 O         141.7537  137.5672  163.7558 O.2     1  UNL1       -0.2731
     14 H         141.3829  140.9549  163.0239 H       1  UNL1        0.1549
     15 C         141.6682  138.4440  158.6349 C.ar    1  UNL1        0.0479
     16 C         140.3404  138.6742  159.2936 C.ar    1  UNL1        0.0158
     17 C         140.2808  139.1897  160.7010 C.ar    1  UNL1        0.0159
     18 C         141.5490  139.4750  161.4496 C.ar    1  UNL1        0.0504
     19 C         142.8767  139.2447  160.7909 C.ar    1  UNL1        0.0159
     20 C         142.9364  138.7292  159.3835 C.ar    1  UNL1        0.0158
     21 N         141.7279  137.9284  157.2275 N.pl3   1  UNL1       -0.3075
     22 C         139.5681  137.1810  155.9920 C.3     1  UNL1        0.0232
     23 C         140.6094  138.2237  156.2727 C.3     1  UNL1        0.0908
     24 C         142.9061  137.1178  156.7751 C.3     1  UNL1        0.0908
     25 C         142.8693  135.6214  156.8739 C.3     1  UNL1        0.0232
     26 N         142.9523  139.8921  165.0756 N.am    1  UNL1       -0.2392
     27 C         144.0176  138.8398  165.1644 C.3     1  UNL1        0.1187
     28 C         143.3074  141.2843  164.6448 C.2     1  UNL1        0.4052
     29 O         142.2420  142.3365  164.5559 O.2     1  UNL1       -0.2262
     30 O         144.7277  141.6243  164.3028 O.3     1  UNL1       -0.4345
     31 C         145.1674  141.6546  162.8691 C.3     1  UNL1        0.2100
     32 C         144.7018  142.7572  161.9649 C.3     1  UNL1        0.0439
     33 C         144.5773  142.5155  160.4898 C.3     1  UNL1        0.0038
     34 C         144.3606  144.1017  162.5360 C.3     1  UNL1        0.0038
     35 O         142.8329  141.4525  169.2834 O.3     1  UNL1       -0.4718
     36 C         143.0976  142.6700  170.1187 C.3     1  UNL1        0.2525
@<TRIPOS>BOND
     1    22    23    1
     2    23    21    1
     3    21    24    1
     4    24    25    1
     5    21    15    1
     6    15    16   ar
     7    16    17   ar
     8    17    18   ar
     9    18    11    1
    10    11    12   am
    11    12    13    2
    12    12     1    1
    13     1    26    1
    14    26    27    1
    15    26    28   am
    16    28    29    2
    17    28    30    1
    18    30    31    1
    19    31    32    1
    20    32    33    1
    21    32    34    1
    22     1     2    1
    23     2     3    1
    24     3     4    1
    25     4     5   ar
    26     5     6   ar
    27     6     7   ar
    28     7     8   ar
    29     8    35    1
    30    35    36    1
    31     8     9   ar
    32     9    10    1
    33    18    19   ar
    34    19    20   ar
    35    20    15   ar
    36    10     1    1
    37     9     4   ar
    38    11    14    1
