@<TRIPOS>MOLECULE
*****
 38 41 0 0 0
SMALL
GASTEIGER

@<TRIPOS>ATOM
      1 C         140.2574  143.1843  165.9692 C.ar    1  UNL1       -0.0065
      2 C         139.3135  144.2915  165.6043 C.ar    1  UNL1       -0.0033
      3 C         139.2417  144.7795  164.1878 C.ar    1  UNL1       -0.0048
      4 C         140.1138  144.1604  163.1361 C.ar    1  UNL1       -0.0245
      5 C         141.0577  143.0533  163.5010 C.ar    1  UNL1       -0.0263
      6 C         141.1295  142.5652  164.9175 C.ar    1  UNL1       -0.0075
      7 C         141.9299  142.4341  162.4493 C.3     1  UNL1        0.0277
      8 C         141.8581  142.9222  161.0327 C.3     1  UNL1        0.0248
      9 C         140.9141  144.0294  160.6679 C.3     1  UNL1        0.0801
     10 C         140.0420  144.6485  161.7195 C.3     1  UNL1        0.0458
     11 N         140.8423  144.5174  159.2513 N.am    1  UNL1       -0.2783
     12 C         141.8814  145.4661  158.7313 C.3     1  UNL1        0.1107
     13 C         141.8096  145.9542  157.3147 C.3     1  UNL1        0.0942
     14 N         140.6987  145.4935  156.4182 N.3     1  UNL1       -0.2632
     15 C         139.6597  144.5449  156.9382 C.3     1  UNL1        0.1587
     16 C         139.7315  144.0569  158.3547 C.2     1  UNL1        0.2420
     17 O         138.6924  143.1082  158.8747 O.2     1  UNL1       -0.2734
     18 C         140.6269  145.9816  155.0016 C.3     1  UNL1        0.0773
     19 C         139.4272  146.7507  154.5332 C.3     1  UNL1        0.0437
     20 C         139.2448  148.1809  154.9470 C.ar    1  UNL1       -0.0206
     21 C         139.7210  149.2870  154.0527 C.ar    1  UNL1       -0.0019
     22 C         139.5386  150.7172  154.4664 C.ar    1  UNL1        0.0293
     23 C         138.8800  151.0414  155.7745 C.ar    1  UNL1        0.1401
     24 F         138.6976  152.4716  156.1882 F       1  UNL1       -0.2042
     25 C         138.4037  149.9353  156.6689 C.ar    1  UNL1        0.0293
     26 C         138.5861  148.5051  156.2551 C.ar    1  UNL1       -0.0019
     27 C         140.3292  142.6963  167.3858 C.3     1  UNL1        0.0996
     28 N         141.4278  141.7642  167.8032 N.3     1  UNL1       -0.2594
     29 C         142.8611  142.1845  167.6644 C.3     1  UNL1        0.0903
     30 C         141.0933  140.4119  168.3592 C.3     1  UNL1        0.1648
     31 C         137.8353  138.7551  166.8132 C.3     1  UNL1        0.1149
     32 N         139.2304  139.2923  166.9359 N.am    1  UNL1       -0.2749
     33 C         140.1577  139.2471  165.7577 C.3     1  UNL1        0.1149
     34 C         139.6982  139.8747  168.2366 C.2     1  UNL1        0.2428
     35 O         138.7709  139.9199  169.4148 O.2     1  UNL1       -0.2733
     36 C         142.1540  139.5967  169.0380 C.3     1  UNL1        0.1624
     37 O         141.8625  138.9294  170.3494 O.3     1  UNL1       -0.3800
     38 H         141.7162  139.6046  171.0303 H       1  UNL1        0.2105
@<TRIPOS>BOND
     1    31    32    1
     2    32    33    1
     3    32    34   am
     4    34    35    2
     5    34    30    1
     6    30    36    1
     7    36    37    1
     8    30    28    1
     9    28    29    1
    10    28    27    1
    11    27     1    1
    12     1     2   ar
    13     2     3   ar
    14     3     4   ar
    15     4     5   ar
    16     5     6   ar
    17     5     7    1
    18     7     8    1
    19     8     9    1
    20     9    11    1
    21    11    12    1
    22    12    13    1
    23    13    14    1
    24    14    18    1
    25    18    19    1
    26    19    20    1
    27    20    21   ar
    28    21    22   ar
    29    22    23   ar
    30    23    24    1
    31    23    25   ar
    32    25    26   ar
    33    14    15    1
    34    15    16    1
    35    16    17    2
    36     9    10    1
    37     6     1   ar
    38    16    11   am
    39    10     4    1
    40    26    20   ar
    41    37    38    1
@<TRIPOS>MOLECULE
*****
 38 41 0 0 0
SMALL
GASTEIGER

@<TRIPOS>ATOM
      1 C         142.1666  140.4172  165.5598 C.ar    1  UNL1       -0.0065
      2 C         141.7010  139.5544  164.4246 C.ar    1  UNL1       -0.0033
      3 C         141.5074  140.1490  163.0611 C.ar    1  UNL1       -0.0048
      4 C         141.7793  141.6063  162.8329 C.ar    1  UNL1       -0.0245
      5 C         142.2449  142.4691  163.9681 C.ar    1  UNL1       -0.0263
      6 C         142.4385  141.8746  165.3316 C.ar    1  UNL1       -0.0075
      7 C         142.5168  143.9266  163.7399 C.3     1  UNL1        0.0277
      8 C         142.3232  144.5211  162.3765 C.3     1  UNL1        0.0248
      9 C         141.8576  143.6582  161.2412 C.3     1  UNL1        0.0801
     10 C         141.5857  142.2009  161.4694 C.3     1  UNL1        0.0458
     11 N         141.6640  144.2527  159.8777 N.am    1  UNL1       -0.2783
     12 C         142.5989  143.8906  158.7619 C.3     1  UNL1        0.1107
     13 C         142.4053  144.4851  157.3985 C.3     1  UNL1        0.0942
     14 N         141.2768  145.4418  157.1508 N.3     1  UNL1       -0.2632
     15 C         140.3420  145.8039  158.2666 C.3     1  UNL1        0.1587
     16 C         140.5356  145.2094  159.6300 C.2     1  UNL1        0.2420
     17 O         139.6008  145.5715  160.7458 O.2     1  UNL1       -0.2734
     18 C         141.0832  146.0363  155.7873 C.3     1  UNL1        0.0773
     19 C         139.7275  146.5209  155.3660 C.3     1  UNL1        0.0437
     20 C         139.4320  147.9913  155.3377 C.ar    1  UNL1       -0.0206
     21 C         138.6359  148.6178  156.4438 C.ar    1  UNL1       -0.0019
     22 C         138.3404  150.0881  156.4154 C.ar    1  UNL1        0.0293
     23 C         138.8411  150.9319  155.2809 C.ar    1  UNL1        0.1401
     24 F         138.5457  152.4023  155.2525 F       1  UNL1       -0.2042
     25 C         139.6373  150.3055  154.1747 C.ar    1  UNL1        0.0293
     26 C         139.9328  148.8351  154.2031 C.ar    1  UNL1       -0.0019
     27 C         142.3602  139.8227  166.9233 C.3     1  UNL1        0.0996
     28 N         141.1988  139.7154  167.8665 N.3     1  UNL1       -0.2594
     29 C         139.8134  139.5087  167.3299 C.3     1  UNL1        0.0903
     30 C         141.4228  139.8147  169.3464 C.3     1  UNL1        0.1648
     31 C         139.6016  142.8786  171.0913 C.3     1  UNL1        0.1149
     32 N         140.5555  142.0951  170.2393 N.am    1  UNL1       -0.2749
     33 C         141.5962  142.8086  169.4282 C.3     1  UNL1        0.1149
     34 C         140.4688  140.5982  170.1984 C.2     1  UNL1        0.2428
     35 O         139.4281  139.8848  171.0095 O.2     1  UNL1       -0.2733
     36 C         142.6009  139.1305  169.9742 C.3     1  UNL1        0.1624
     37 O         143.5560  139.9126  170.8263 O.3     1  UNL1       -0.3800
     38 H         144.0201  140.5639  170.2775 H       1  UNL1        0.2105
@<TRIPOS>BOND
     1    31    32    1
     2    32    33    1
     3    32    34   am
     4    34    35    2
     5    34    30    1
     6    30    36    1
     7    36    37    1
     8    30    28    1
     9    28    29    1
    10    28    27    1
    11    27     1    1
    12     1     2   ar
    13     2     3   ar
    14     3     4   ar
    15     4     5   ar
    16     5     6   ar
    17     5     7    1
    18     7     8    1
    19     8     9    1
    20     9    11    1
    21    11    12    1
    22    12    13    1
    23    13    14    1
    24    14    18    1
    25    18    19    1
    26    19    20    1
    27    20    21   ar
    28    21    22   ar
    29    22    23   ar
    30    23    24    1
    31    23    25   ar
    32    25    26   ar
    33    14    15    1
    34    15    16    1
    35    16    17    2
    36     9    10    1
    37     6     1   ar
    38    16    11   am
    39    10     4    1
    40    26    20   ar
    41    37    38    1
@<TRIPOS>MOLECULE
*****
 38 41 0 0 0
SMALL
GASTEIGER

@<TRIPOS>ATOM
      1 C         139.4992  137.6959  163.7813 C.ar    1  UNL1       -0.0065
      2 C         138.5765  138.1182  162.6767 C.ar    1  UNL1       -0.0033
      3 C         139.1331  138.4808  161.3319 C.ar    1  UNL1       -0.0048
      4 C         140.6125  138.4212  161.0916 C.ar    1  UNL1       -0.0245
      5 C         141.5353  137.9989  162.1962 C.ar    1  UNL1       -0.0263
      6 C         140.9786  137.6363  163.5411 C.ar    1  UNL1       -0.0075
      7 C         143.0148  137.9393  161.9561 C.3     1  UNL1        0.0277
      8 C         143.5714  138.3019  160.6112 C.3     1  UNL1        0.0248
      9 C         142.6486  138.7242  159.5066 C.3     1  UNL1        0.0801
     10 C         141.1692  138.7839  159.7468 C.3     1  UNL1        0.0458
     11 N         143.2053  139.0869  158.1617 N.am    1  UNL1       -0.2783
     12 C         143.0829  138.1268  157.0157 C.3     1  UNL1        0.1107
     13 C         143.6396  138.4895  155.6708 C.3     1  UNL1        0.0942
     14 N         144.3187  139.8122  155.4721 N.3     1  UNL1       -0.2632
     15 C         144.4410  140.7721  156.6181 C.3     1  UNL1        0.1587
     16 C         143.8844  140.4095  157.9630 C.2     1  UNL1        0.2420
     17 O         144.0067  141.3694  159.1090 O.2     1  UNL1       -0.2734
     18 C         144.8754  140.1749  154.1272 C.3     1  UNL1        0.0773
     19 C         145.5850  141.4827  153.9371 C.3     1  UNL1        0.0437
     20 C         147.0777  141.5520  154.0680 C.ar    1  UNL1       -0.0206
     21 C         147.7071  141.6660  155.4247 C.ar    1  UNL1       -0.0019
     22 C         149.1998  141.7353  155.5556 C.ar    1  UNL1        0.0293
     23 C         150.0630  141.6906  154.3298 C.ar    1  UNL1        0.1401
     24 F         151.5557  141.7599  154.4607 F       1  UNL1       -0.2042
     25 C         149.4336  141.5766  152.9729 C.ar    1  UNL1        0.0293
     26 C         147.9409  141.5073  152.8421 C.ar    1  UNL1       -0.0019
     27 C         138.9425  137.3332  165.1261 C.3     1  UNL1        0.0996
     28 N         138.6048  138.4107  166.1135 N.3     1  UNL1       -0.2594
     29 C         137.4541  138.2285  167.0583 C.3     1  UNL1        0.0903
     30 C         139.4179  139.6706  166.1561 C.3     1  UNL1        0.1648
     31 C         142.1263  140.0594  169.0306 C.3     1  UNL1        0.1149
     32 N         140.8048  140.0432  168.3211 N.am    1  UNL1       -0.2749
     33 C         139.5488  140.3835  169.0672 C.3     1  UNL1        0.1149
     34 C         140.7393  139.6867  166.8656 C.2     1  UNL1        0.2428
     35 O         141.9953  139.3464  166.1195 O.2     1  UNL1       -0.2733
     36 C         138.9094  140.9143  165.4891 C.3     1  UNL1        0.1624
     37 O         137.6432  140.8705  164.6861 O.3     1  UNL1       -0.3800
     38 H         137.7746  140.3098  163.9055 H       1  UNL1        0.2105
@<TRIPOS>BOND
     1    31    32    1
     2    32    33    1
     3    32    34   am
     4    34    35    2
     5    34    30    1
     6    30    36    1
     7    36    37    1
     8    30    28    1
     9    28    29    1
    10    28    27    1
    11    27     1    1
    12     1     2   ar
    13     2     3   ar
    14     3     4   ar
    15     4     5   ar
    16     5     6   ar
    17     5     7    1
    18     7     8    1
    19     8     9    1
    20     9    11    1
    21    11    12    1
    22    12    13    1
    23    13    14    1
    24    14    18    1
    25    18    19    1
    26    19    20    1
    27    20    21   ar
    28    21    22   ar
    29    22    23   ar
    30    23    24    1
    31    23    25   ar
    32    25    26   ar
    33    14    15    1
    34    15    16    1
    35    16    17    2
    36     9    10    1
    37     6     1   ar
    38    16    11   am
    39    10     4    1
    40    26    20   ar
    41    37    38    1
@<TRIPOS>MOLECULE
*****
 38 41 0 0 0
SMALL
GASTEIGER

@<TRIPOS>ATOM
      1 C         143.0071  142.5497  166.0636 C.ar    1  UNL1       -0.0065
      2 C         144.0931  142.5117  165.0297 C.ar    1  UNL1       -0.0033
      3 C         143.7763  142.8246  163.5973 C.ar    1  UNL1       -0.0048
      4 C         142.3735  143.1756  163.1989 C.ar    1  UNL1       -0.0245
      5 C         141.2875  143.2136  164.2328 C.ar    1  UNL1       -0.0263
      6 C         141.6042  142.9007  165.6652 C.ar    1  UNL1       -0.0075
      7 C         139.8845  143.5646  163.8343 C.3     1  UNL1        0.0277
      8 C         139.5677  143.8776  162.4020 C.3     1  UNL1        0.0248
      9 C         140.6539  143.8396  161.3680 C.3     1  UNL1        0.0801
     10 C         142.0567  143.4886  161.7665 C.3     1  UNL1        0.0458
     11 N         140.3371  144.1525  159.9357 N.am    1  UNL1       -0.2783
     12 C         140.8020  145.4435  159.3295 C.3     1  UNL1        0.1107
     13 C         140.4853  145.7564  157.8971 C.3     1  UNL1        0.0942
     14 N         139.7035  144.7785  157.0709 N.3     1  UNL1       -0.2632
     15 C         139.2386  143.4876  157.6771 C.3     1  UNL1        0.1587
     16 C         139.5554  143.1747  159.1095 C.2     1  UNL1        0.2420
     17 O         139.0905  141.8838  159.7157 O.2     1  UNL1       -0.2734
     18 C         139.3867  145.0914  155.6385 C.3     1  UNL1        0.0773
     19 C         140.2703  146.0213  154.8609 C.3     1  UNL1        0.0437
     20 C         139.9017  147.4691  154.7266 C.ar    1  UNL1       -0.0206
     21 C         140.4582  148.2830  153.5962 C.ar    1  UNL1       -0.0019
     22 C         140.0896  149.7308  153.4619 C.ar    1  UNL1        0.0293
     23 C         139.1646  150.3647  154.4581 C.ar    1  UNL1        0.1401
     24 F         138.7960  151.8125  154.3238 F       1  UNL1       -0.2042
     25 C         138.6080  149.5508  155.5885 C.ar    1  UNL1        0.0293
     26 C         138.9766  148.1030  155.7228 C.ar    1  UNL1       -0.0019
     27 C         143.3239  142.2367  167.4960 C.3     1  UNL1        0.0996
     28 N         142.7638  141.0008  168.1352 N.3     1  UNL1       -0.2594
     29 C         142.4813  139.7868  167.3005 C.3     1  UNL1        0.0903
     30 C         142.4862  140.9786  169.6091 C.3     1  UNL1        0.1648
     31 C         139.4141  143.1081  170.9423 C.3     1  UNL1        0.1149
     32 N         140.2023  141.9990  170.3108 N.am    1  UNL1       -0.2749
     33 C         139.4948  140.8015  169.7495 C.3     1  UNL1        0.1149
     34 C         141.6981  142.0876  170.2406 C.2     1  UNL1        0.2428
     35 O         142.4056  143.2852  170.8019 O.2     1  UNL1       -0.2733
     36 C         142.9969  139.8474  170.4516 C.3     1  UNL1        0.1624
     37 O         142.2186  138.5681  170.5409 O.3     1  UNL1       -0.3800
     38 H         141.3736  138.7343  170.9872 H       1  UNL1        0.2105
@<TRIPOS>BOND
     1    31    32    1
     2    32    33    1
     3    32    34   am
     4    34    35    2
     5    34    30    1
     6    30    36    1
     7    36    37    1
     8    30    28    1
     9    28    29    1
    10    28    27    1
    11    27     1    1
    12     1     2   ar
    13     2     3   ar
    14     3     4   ar
    15     4     5   ar
    16     5     6   ar
    17     5     7    1
    18     7     8    1
    19     8     9    1
    20     9    11    1
    21    11    12    1
    22    12    13    1
    23    13    14    1
    24    14    18    1
    25    18    19    1
    26    19    20    1
    27    20    21   ar
    28    21    22   ar
    29    22    23   ar
    30    23    24    1
    31    23    25   ar
    32    25    26   ar
    33    14    15    1
    34    15    16    1
    35    16    17    2
    36     9    10    1
    37     6     1   ar
    38    16    11   am
    39    10     4    1
    40    26    20   ar
    41    37    38    1
@<TRIPOS>MOLECULE
*****
 38 41 0 0 0
SMALL
GASTEIGER

@<TRIPOS>ATOM
      1 C         142.2138  142.5431  166.7567 C.ar    1  UNL1       -0.0065
      2 C         140.7598  142.8529  166.5572 C.ar    1  UNL1       -0.0033
      3 C         140.2477  143.2012  165.1910 C.ar    1  UNL1       -0.0048
      4 C         141.1896  143.2397  164.0243 C.ar    1  UNL1       -0.0245
      5 C         142.6436  142.9299  164.2238 C.ar    1  UNL1       -0.0263
      6 C         143.1557  142.5816  165.5899 C.ar    1  UNL1       -0.0075
      7 C         143.5856  142.9684  163.0570 C.3     1  UNL1        0.0277
      8 C         143.0735  143.3167  161.6908 C.3     1  UNL1        0.0248
      9 C         141.6194  143.6265  161.4914 C.3     1  UNL1        0.0801
     10 C         140.6775  143.5880  162.6581 C.3     1  UNL1        0.0458
     11 N         141.1073  143.9747  160.1252 N.am    1  UNL1       -0.2783
     12 C         141.2563  142.9977  158.9968 C.3     1  UNL1        0.1107
     13 C         140.7442  143.3460  157.6306 C.3     1  UNL1        0.0942
     14 N         140.0830  144.6713  157.3929 N.3     1  UNL1       -0.2632
     15 C         139.9340  145.6483  158.5212 C.3     1  UNL1        0.1587
     16 C         140.4461  145.3000  159.8874 C.2     1  UNL1        0.2420
     17 O         140.2971  146.2770  161.0158 O.2     1  UNL1       -0.2734
     18 C         139.5709  145.0196  156.0267 C.3     1  UNL1        0.0773
     19 C         140.4077  145.8532  155.1021 C.3     1  UNL1        0.0437
     20 C         140.0172  147.2719  154.8110 C.ar    1  UNL1       -0.0206
     21 C         139.1034  148.0054  155.7474 C.ar    1  UNL1       -0.0019
     22 C         138.7128  149.4241  155.4564 C.ar    1  UNL1        0.0293
     23 C         139.2361  150.1094  154.2290 C.ar    1  UNL1        0.1401
     24 F         138.8456  151.5281  153.9379 F       1  UNL1       -0.2042
     25 C         140.1500  149.3759  153.2925 C.ar    1  UNL1        0.0293
     26 C         140.5405  147.9571  153.5835 C.ar    1  UNL1       -0.0019
     27 C         142.7260  142.1949  168.1228 C.3     1  UNL1        0.0996
     28 N         141.7821  141.6804  169.1690 N.3     1  UNL1       -0.2594
     29 C         141.2693  142.6026  170.2352 C.3     1  UNL1        0.0903
     30 C         141.3510  140.2439  169.1490 C.3     1  UNL1        0.1648
     31 C         138.2612  139.0870  166.9434 C.3     1  UNL1        0.1149
     32 N         139.6618  139.4443  167.3442 N.am    1  UNL1       -0.2749
     33 C         140.7738  139.3592  166.3411 C.3     1  UNL1        0.1149
     34 C         139.9504  139.8866  168.7482 C.2     1  UNL1        0.2428
     35 O         138.8385  139.9717  169.7513 O.2     1  UNL1       -0.2733
     36 C         142.3206  139.1645  169.5299 C.3     1  UNL1        0.1624
     37 O         143.1450  139.3024  170.7754 O.3     1  UNL1       -0.3800
     38 H         143.7604  140.0454  170.6752 H       1  UNL1        0.2105
@<TRIPOS>BOND
     1    31    32    1
     2    32    33    1
     3    32    34   am
     4    34    35    2
     5    34    30    1
     6    30    36    1
     7    36    37    1
     8    30    28    1
     9    28    29    1
    10    28    27    1
    11    27     1    1
    12     1     2   ar
    13     2     3   ar
    14     3     4   ar
    15     4     5   ar
    16     5     6   ar
    17     5     7    1
    18     7     8    1
    19     8     9    1
    20     9    11    1
    21    11    12    1
    22    12    13    1
    23    13    14    1
    24    14    18    1
    25    18    19    1
    26    19    20    1
    27    20    21   ar
    28    21    22   ar
    29    22    23   ar
    30    23    24    1
    31    23    25   ar
    32    25    26   ar
    33    14    15    1
    34    15    16    1
    35    16    17    2
    36     9    10    1
    37     6     1   ar
    38    16    11   am
    39    10     4    1
    40    26    20   ar
    41    37    38    1
@<TRIPOS>MOLECULE
*****
 38 41 0 0 0
SMALL
GASTEIGER

@<TRIPOS>ATOM
      1 C         140.0006  141.4422  166.2940 C.ar    1  UNL1       -0.0065
      2 C         139.5053  140.5206  165.2192 C.ar    1  UNL1       -0.0033
      3 C         139.5884  140.9340  163.7797 C.ar    1  UNL1       -0.0048
      4 C         140.1667  142.2691  163.4150 C.ar    1  UNL1       -0.0245
      5 C         140.6619  143.1907  164.4898 C.ar    1  UNL1       -0.0263
      6 C         140.5789  142.7773  165.9293 C.ar    1  UNL1       -0.0075
      7 C         141.2403  144.5259  164.1251 C.3     1  UNL1        0.0277
      8 C         141.3233  144.9393  162.6856 C.3     1  UNL1        0.0248
      9 C         140.8280  144.0176  161.6107 C.3     1  UNL1        0.0801
     10 C         140.2497  142.6825  161.9755 C.3     1  UNL1        0.0458
     11 N         140.9111  144.4310  160.1712 N.am    1  UNL1       -0.2783
     12 C         141.7493  143.6402  159.2110 C.3     1  UNL1        0.1107
     13 C         141.8324  144.0536  157.7715 C.3     1  UNL1        0.0942
     14 N         141.0771  145.2578  157.2922 N.3     1  UNL1       -0.2632
     15 C         140.2389  146.0485  158.2525 C.3     1  UNL1        0.1587
     16 C         140.1559  145.6351  159.6920 C.2     1  UNL1        0.2420
     17 O         139.3177  146.4258  160.6522 O.2     1  UNL1       -0.2734
     18 C         141.1602  145.6712  155.8527 C.3     1  UNL1        0.0773
     19 C         139.9320  146.1527  155.1386 C.3     1  UNL1        0.0437
     20 C         139.8188  147.5909  154.7276 C.ar    1  UNL1       -0.0206
     21 C         138.9989  148.5428  155.5471 C.ar    1  UNL1       -0.0019
     22 C         138.8857  149.9809  155.1360 C.ar    1  UNL1        0.0293
     23 C         139.5924  150.4672  153.9056 C.ar    1  UNL1        0.1401
     24 F         139.4792  151.9053  153.4946 F       1  UNL1       -0.2042
     25 C         140.4124  149.5152  153.0861 C.ar    1  UNL1        0.0293
     26 C         140.5256  148.0771  153.4971 C.ar    1  UNL1       -0.0019
     27 C         139.9175  141.0288  167.7335 C.3     1  UNL1        0.0996
     28 N         140.9148  141.5538  168.7233 N.3     1  UNL1       -0.2594
     29 C         140.4578  142.4135  169.8644 C.3     1  UNL1        0.0903
     30 C         142.3692  141.2191  168.5721 C.3     1  UNL1        0.1648
     31 C         143.6408  137.9525  166.7114 C.3     1  UNL1        0.1149
     32 N         143.2191  139.3711  166.9558 N.am    1  UNL1       -0.2749
     33 C         143.2257  140.3603  165.8282 C.3     1  UNL1        0.1149
     34 C         142.7908  139.8005  168.3277 C.2     1  UNL1        0.2428
     35 O         142.7842  138.8113  169.4552 O.2     1  UNL1       -0.2733
     36 C         143.4019  142.3031  168.6653 C.3     1  UNL1        0.1624
     37 O         144.0548  142.6057  169.9814 O.3     1  UNL1       -0.3800
     38 H         143.3933  142.9583  170.5970 H       1  UNL1        0.2105
@<TRIPOS>BOND
     1    31    32    1
     2    32    33    1
     3    32    34   am
     4    34    35    2
     5    34    30    1
     6    30    36    1
     7    36    37    1
     8    30    28    1
     9    28    29    1
    10    28    27    1
    11    27     1    1
    12     1     2   ar
    13     2     3   ar
    14     3     4   ar
    15     4     5   ar
    16     5     6   ar
    17     5     7    1
    18     7     8    1
    19     8     9    1
    20     9    11    1
    21    11    12    1
    22    12    13    1
    23    13    14    1
    24    14    18    1
    25    18    19    1
    26    19    20    1
    27    20    21   ar
    28    21    22   ar
    29    22    23   ar
    30    23    24    1
    31    23    25   ar
    32    25    26   ar
    33    14    15    1
    34    15    16    1
    35    16    17    2
    36     9    10    1
    37     6     1   ar
    38    16    11   am
    39    10     4    1
    40    26    20   ar
    41    37    38    1
@<TRIPOS>MOLECULE
*****
 38 41 0 0 0
SMALL
GASTEIGER

@<TRIPOS>ATOM
      1 C         138.6066  140.8632  163.2105 C.ar    1  UNL1       -0.0065
      2 C         138.4051  139.3798  163.3057 C.ar    1  UNL1       -0.0033
      3 C         138.8931  138.4845  162.2055 C.ar    1  UNL1       -0.0048
      4 C         139.5824  139.0726  161.0101 C.ar    1  UNL1       -0.0245
      5 C         139.7839  140.5559  160.9150 C.ar    1  UNL1       -0.0263
      6 C         139.2959  141.4512  162.0151 C.ar    1  UNL1       -0.0075
      7 C         140.4733  141.1440  159.7195 C.3     1  UNL1        0.0277
      8 C         140.9612  140.2488  158.6194 C.3     1  UNL1        0.0248
      9 C         140.7597  138.7653  158.7146 C.3     1  UNL1        0.0801
     10 C         140.0704  138.1773  159.9100 C.3     1  UNL1        0.0458
     11 N         141.2477  137.8701  157.6144 N.am    1  UNL1       -0.2783
     12 C         142.6498  137.3378  157.6468 C.3     1  UNL1        0.1107
     13 C         143.1377  136.4425  156.5466 C.3     1  UNL1        0.0942
     14 N         142.2235  136.0795  155.4141 N.3     1  UNL1       -0.2632
     15 C         140.8215  136.6117  155.3817 C.3     1  UNL1        0.1587
     16 C         140.3336  137.5070  156.4819 C.2     1  UNL1        0.2420
     17 O         138.9316  138.0392  156.4496 O.2     1  UNL1       -0.2734
     18 C         142.7115  135.1842  154.3139 C.3     1  UNL1        0.0773
     19 C         141.9388  133.9502  153.9529 C.3     1  UNL1        0.0437
     20 C         142.1709  132.6732  154.7048 C.ar    1  UNL1       -0.0206
     21 C         141.8041  131.3588  154.0820 C.ar    1  UNL1       -0.0019
     22 C         142.0363  130.0818  154.8340 C.ar    1  UNL1        0.0293
     23 C         142.6352  130.1192  156.2087 C.ar    1  UNL1        0.1401
     24 F         142.8674  128.8422  156.9606 F       1  UNL1       -0.2042
     25 C         143.0021  131.4336  156.8315 C.ar    1  UNL1        0.0293
     26 C         142.7699  132.7106  156.0795 C.ar    1  UNL1       -0.0019
     27 C         138.1187  141.7584  164.3107 C.3     1  UNL1        0.0996
     28 N         139.0721  142.6906  164.9975 N.3     1  UNL1       -0.2594
     29 C         140.1464  142.1418  165.8891 C.3     1  UNL1        0.0903
     30 C         138.9515  144.1717  164.7928 C.3     1  UNL1        0.1648
     31 C         140.1787  145.7750  161.3763 C.3     1  UNL1        0.1149
     32 N         140.2014  145.2093  162.7652 N.am    1  UNL1       -0.2749
     33 C         141.4968  145.1153  163.5157 C.3     1  UNL1        0.1149
     34 C         138.9288  144.7375  163.4038 C.2     1  UNL1        0.2428
     35 O         137.6334  144.8314  162.6534 O.2     1  UNL1       -0.2733
     36 C         138.8535  145.0870  165.9772 C.3     1  UNL1        0.1624
     37 O         137.5304  145.6826  166.3573 O.3     1  UNL1       -0.3800
     38 H         137.2360  146.2884  165.6593 H       1  UNL1        0.2105
@<TRIPOS>BOND
     1    31    32    1
     2    32    33    1
     3    32    34   am
     4    34    35    2
     5    34    30    1
     6    30    36    1
     7    36    37    1
     8    30    28    1
     9    28    29    1
    10    28    27    1
    11    27     1    1
    12     1     2   ar
    13     2     3   ar
    14     3     4   ar
    15     4     5   ar
    16     5     6   ar
    17     5     7    1
    18     7     8    1
    19     8     9    1
    20     9    11    1
    21    11    12    1
    22    12    13    1
    23    13    14    1
    24    14    18    1
    25    18    19    1
    26    19    20    1
    27    20    21   ar
    28    21    22   ar
    29    22    23   ar
    30    23    24    1
    31    23    25   ar
    32    25    26   ar
    33    14    15    1
    34    15    16    1
    35    16    17    2
    36     9    10    1
    37     6     1   ar
    38    16    11   am
    39    10     4    1
    40    26    20   ar
    41    37    38    1
@<TRIPOS>MOLECULE
*****
 38 41 0 0 0
SMALL
GASTEIGER

@<TRIPOS>ATOM
      1 C         143.1702  142.3664  166.0093 C.ar    1  UNL1       -0.0065
      2 C         144.4346  143.0134  165.5269 C.ar    1  UNL1       -0.0033
      3 C         144.7564  143.0310  164.0620 C.ar    1  UNL1       -0.0048
      4 C         143.8139  142.4017  163.0794 C.ar    1  UNL1       -0.0245
      5 C         142.5495  141.7547  163.5617 C.ar    1  UNL1       -0.0263
      6 C         142.2277  141.7371  165.0267 C.ar    1  UNL1       -0.0075
      7 C         141.6069  141.1254  162.5791 C.3     1  UNL1        0.0277
      8 C         141.9288  141.1430  161.1142 C.3     1  UNL1        0.0248
      9 C         143.1932  141.7901  160.6318 C.3     1  UNL1        0.0801
     10 C         144.1357  142.4194  161.6144 C.3     1  UNL1        0.0458
     11 N         143.5151  141.8077  159.1669 N.am    1  UNL1       -0.2783
     12 C         143.3393  143.0699  158.3755 C.3     1  UNL1        0.1107
     13 C         143.6612  143.0875  156.9106 C.3     1  UNL1        0.0942
     14 N         144.1588  141.8430  156.2369 N.3     1  UNL1       -0.2632
     15 C         144.3345  140.5810  157.0283 C.3     1  UNL1        0.1587
     16 C         144.0126  140.5633  158.4932 C.2     1  UNL1        0.2420
     17 O         144.1883  139.3012  159.2846 O.2     1  UNL1       -0.2734
     18 C         144.4806  141.8607  154.7720 C.3     1  UNL1        0.0773
     19 C         145.4631  142.8573  154.2319 C.3     1  UNL1        0.0437
     20 C         146.9347  142.5770  154.3087 C.ar    1  UNL1       -0.0206
     21 C         147.5286  142.0278  155.5719 C.ar    1  UNL1       -0.0019
     22 C         149.0002  141.7475  155.6487 C.ar    1  UNL1        0.0293
     23 C         149.8778  142.0164  154.4624 C.ar    1  UNL1        0.1401
     24 F         151.3494  141.7362  154.5392 F       1  UNL1       -0.2042
     25 C         149.2839  142.5657  153.1991 C.ar    1  UNL1        0.0293
     26 C         147.8123  142.8459  153.1223 C.ar    1  UNL1       -0.0019
     27 C         142.8483  142.3488  167.4742 C.3     1  UNL1        0.0996
     28 N         141.5011  141.8826  167.9406 N.3     1  UNL1       -0.2594
     29 C         140.3858  142.8700  168.1179 C.3     1  UNL1        0.0903
     30 C         141.2690  140.4291  168.2296 C.3     1  UNL1        0.1648
     31 C         137.7867  138.8380  167.1845 C.3     1  UNL1        0.1149
     32 N         139.1861  139.3705  167.0935 N.am    1  UNL1       -0.2749
     33 C         139.9018  139.3768  165.7753 C.3     1  UNL1        0.1149
     34 C         139.8696  139.8967  168.3206 C.2     1  UNL1        0.2428
     35 O         139.1539  139.8904  169.6388 O.2     1  UNL1       -0.2733
     36 C         142.4363  139.5081  168.4276 C.3     1  UNL1        0.1624
     37 O         142.8862  139.1550  169.8142 O.3     1  UNL1       -0.3800
     38 H         143.2289  139.9483  170.2548 H       1  UNL1        0.2105
@<TRIPOS>BOND
     1    31    32    1
     2    32    33    1
     3    32    34   am
     4    34    35    2
     5    34    30    1
     6    30    36    1
     7    36    37    1
     8    30    28    1
     9    28    29    1
    10    28    27    1
    11    27     1    1
    12     1     2   ar
    13     2     3   ar
    14     3     4   ar
    15     4     5   ar
    16     5     6   ar
    17     5     7    1
    18     7     8    1
    19     8     9    1
    20     9    11    1
    21    11    12    1
    22    12    13    1
    23    13    14    1
    24    14    18    1
    25    18    19    1
    26    19    20    1
    27    20    21   ar
    28    21    22   ar
    29    22    23   ar
    30    23    24    1
    31    23    25   ar
    32    25    26   ar
    33    14    15    1
    34    15    16    1
    35    16    17    2
    36     9    10    1
    37     6     1   ar
    38    16    11   am
    39    10     4    1
    40    26    20   ar
    41    37    38    1
@<TRIPOS>MOLECULE
*****
 38 41 0 0 0
SMALL
GASTEIGER

@<TRIPOS>ATOM
      1 C         139.7429  142.7161  164.7895 C.ar    1  UNL1       -0.0065
      2 C         138.2755  142.8824  164.5270 C.ar    1  UNL1       -0.0033
      3 C         137.7383  142.7128  163.1368 C.ar    1  UNL1       -0.0048
      4 C         138.6685  142.3769  162.0091 C.ar    1  UNL1       -0.0245
      5 C         140.1359  142.2106  162.2715 C.ar    1  UNL1       -0.0263
      6 C         140.6731  142.3802  163.6617 C.ar    1  UNL1       -0.0075
      7 C         141.0662  141.8747  161.1438 C.3     1  UNL1        0.0277
      8 C         140.5289  141.7051  159.7536 C.3     1  UNL1        0.0248
      9 C         139.0614  141.8714  159.4912 C.3     1  UNL1        0.0801
     10 C         138.1312  142.2073  160.6189 C.3     1  UNL1        0.0458
     11 N         138.5242  141.7019  158.1010 N.am    1  UNL1       -0.2783
     12 C         137.9996  142.8895  157.3496 C.3     1  UNL1        0.1107
     13 C         137.4624  142.7199  155.9594 C.3     1  UNL1        0.0942
     14 N         137.4497  141.3627  155.3206 N.3     1  UNL1       -0.2632
     15 C         137.9743  140.1752  156.0720 C.3     1  UNL1        0.1587
     16 C         138.5115  140.3448  157.4622 C.2     1  UNL1        0.2420
     17 O         139.0361  139.1573  158.2136 O.2     1  UNL1       -0.2734
     18 C         136.9125  141.1931  153.9304 C.3     1  UNL1        0.0773
     19 C         135.7536  140.2739  153.6812 C.3     1  UNL1        0.0437
     20 C         134.5916  140.2578  154.6297 C.ar    1  UNL1       -0.0206
     21 C         134.4415  139.1348  155.6127 C.ar    1  UNL1       -0.0019
     22 C         133.2796  139.1187  156.5612 C.ar    1  UNL1        0.0293
     23 C         132.2678  140.2255  156.5267 C.ar    1  UNL1        0.1401
     24 F         131.1059  140.2094  157.4752 F       1  UNL1       -0.2042
     25 C         132.4179  141.3485  155.5436 C.ar    1  UNL1        0.0293
     26 C         133.5798  141.3647  154.5951 C.ar    1  UNL1       -0.0019
     27 C         140.2802  142.8857  166.1797 C.3     1  UNL1        0.0996
     28 N         141.1847  141.8430  166.7665 N.3     1  UNL1       -0.2594
     29 C         142.6285  142.1601  167.0217 C.3     1  UNL1        0.0903
     30 C         140.6456  140.4831  167.0982 C.3     1  UNL1        0.1648
     31 C         140.0033  137.6318  164.4137 C.3     1  UNL1        0.1149
     32 N         139.7607  138.7823  165.3449 N.am    1  UNL1       -0.2749
     33 C         138.3905  139.3828  165.4540 C.3     1  UNL1        0.1149
     34 C         140.8882  139.3325  166.1670 C.2     1  UNL1        0.2428
     35 O         142.2584  138.7320  166.0579 O.2     1  UNL1       -0.2733
     36 C         139.8638  140.2738  168.3613 C.3     1  UNL1        0.1624
     37 O         139.8861  141.3172  169.4387 O.3     1  UNL1       -0.3800
     38 H         140.7802  141.3798  169.8097 H       1  UNL1        0.2105
@<TRIPOS>BOND
     1    31    32    1
     2    32    33    1
     3    32    34   am
     4    34    35    2
     5    34    30    1
     6    30    36    1
     7    36    37    1
     8    30    28    1
     9    28    29    1
    10    28    27    1
    11    27     1    1
    12     1     2   ar
    13     2     3   ar
    14     3     4   ar
    15     4     5   ar
    16     5     6   ar
    17     5     7    1
    18     7     8    1
    19     8     9    1
    20     9    11    1
    21    11    12    1
    22    12    13    1
    23    13    14    1
    24    14    18    1
    25    18    19    1
    26    19    20    1
    27    20    21   ar
    28    21    22   ar
    29    22    23   ar
    30    23    24    1
    31    23    25   ar
    32    25    26   ar
    33    14    15    1
    34    15    16    1
    35    16    17    2
    36     9    10    1
    37     6     1   ar
    38    16    11   am
    39    10     4    1
    40    26    20   ar
    41    37    38    1
