@<TRIPOS>MOLECULE
*****
 40 45 0 0 0
SMALL
GASTEIGER

@<TRIPOS>ATOM
      1 C         138.8351  141.8668  159.5078 C.2     1  UNL1        0.2495
      2 O         138.0921  142.1826  160.7721 O.2     1  UNL1       -0.2699
      3 N         139.5705  140.5662  159.3750 N.am    1  UNL1       -0.2674
      4 C         140.3533  140.1141  158.1780 C.3     1  UNL1        0.1185
      5 C         140.9188  138.7578  158.4791 C.3     1  UNL1        0.1288
      6 C         140.4855  138.3716  159.8623 C.3     1  UNL1        0.0554
      7 C         139.6522  139.4892  160.4159 C.3     1  UNL1        0.1542
      8 C         139.0128  139.5238  161.7724 C.2     1  UNL1        0.2438
      9 O         137.6423  138.9471  161.9706 O.2     1  UNL1       -0.2731
     10 N         139.7439  140.1350  162.9309 N.am    1  UNL1       -0.2779
     11 C         141.1124  140.7476  162.8856 C.3     1  UNL1        0.0939
     12 C         141.4491  141.2322  164.2646 C.3     1  UNL1        0.0276
     13 C         140.2888  140.9192  165.1622 C.3     1  UNL1        0.0439
     14 C         139.2349  140.2411  164.3379 C.3     1  UNL1        0.0978
     15 C         140.1982  141.2297  166.6269 C.ar    1  UNL1       -0.0208
     16 C         139.6713  140.1991  167.5808 C.ar    1  UNL1       -0.0042
     17 C         139.5807  140.5097  169.0455 C.ar    1  UNL1       -0.0003
     18 C         140.0171  141.8509  169.5562 C.ar    1  UNL1       -0.0000
     19 C         140.5441  142.8814  168.6022 C.ar    1  UNL1       -0.0003
     20 C         140.6346  142.5709  167.1376 C.ar    1  UNL1       -0.0042
     21 C         139.7838  145.0098  157.2782 C.ar    1  UNL1        0.1361
     22 C         139.7763  144.0251  158.4097 C.ar    1  UNL1        0.0411
     23 C         138.8426  142.8515  158.3764 C.ar    1  UNL1        0.0566
     24 C         137.9165  142.6628  157.2116 C.ar    1  UNL1        0.0044
     25 C         137.9240  143.6475  156.0802 C.ar    1  UNL1        0.0002
     26 C         138.8577  144.8211  156.1135 C.ar    1  UNL1        0.0274
     27 C         138.8653  145.8058  154.9821 C.3     1  UNL1        0.0952
     28 N         138.4950  147.2378  155.2316 N.3     1  UNL1       -0.3174
     29 H         137.5124  147.2932  155.4996 H       1  UNL1        0.1192
     30 H         138.6469  147.7813  154.3820 H       1  UNL1        0.1192
     31 C         142.1959  145.9623  157.4364 C.3     1  UNL1        0.2525
     32 O         140.7175  146.1834  157.3115 O.3     1  UNL1       -0.4717
     33 N         141.7684  137.9326  157.5587 N.ar    1  UNL1       -0.2307
     34 C         141.2751  136.8822  156.6082 C.ar    1  UNL1        0.1131
     35 C         142.4624  136.3134  155.8893 C.ar    1  UNL1        0.1005
     36 N         143.6893  137.0122  156.3953 N.ar    1  UNL1       -0.1332
     37 N         143.2605  138.0130  157.4271 N.ar    1  UNL1       -0.0641
     38 C         142.4285  135.2350  154.8472 C.3     1  UNL1        0.0437
     39 C         142.6599  133.8082  154.4463 C.3     1  UNL1        0.0064
     40 C         142.1384  134.7940  153.4431 C.3     1  UNL1        0.0064
@<TRIPOS>BOND
     1    31    32    1
     2    32    21    1
     3    21    22   ar
     4    22    23   ar
     5    23     1    1
     6     1     2    2
     7     1     3   am
     8     3     4    1
     9     4     5    1
    10     5    33    1
    11    33    34   ar
    12    34    35   ar
    13    35    38    1
    14    38    39    1
    15    39    40    1
    16    35    36   ar
    17    36    37   ar
    18     5     6    1
    19     6     7    1
    20     7     8    1
    21     8     9    2
    22     8    10   am
    23    10    11    1
    24    11    12    1
    25    12    13    1
    26    13    15    1
    27    15    16   ar
    28    16    17   ar
    29    17    18   ar
    30    18    19   ar
    31    19    20   ar
    32    13    14    1
    33    23    24   ar
    34    24    25   ar
    35    25    26   ar
    36    26    27    1
    37    27    28    1
    38    26    21   ar
    39     7     3    1
    40    14    10    1
    41    37    33   ar
    42    20    15   ar
    43    40    38    1
    44    28    29    1
    45    28    30    1
@<TRIPOS>MOLECULE
*****
 40 45 0 0 0
SMALL
GASTEIGER

@<TRIPOS>ATOM
      1 C         139.3793  142.8012  159.6539 C.2     1  UNL1        0.2495
      2 O         138.6087  143.2293  160.8676 O.2     1  UNL1       -0.2699
      3 N         139.8841  141.3929  159.5443 N.am    1  UNL1       -0.2674
      4 C         140.6649  140.8229  158.3973 C.3     1  UNL1        0.1185
      5 C         140.9601  139.3852  158.7065 C.3     1  UNL1        0.1288
      6 C         140.3618  139.0665  160.0446 C.3     1  UNL1        0.0554
      7 C         139.6968  140.3074  160.5623 C.3     1  UNL1        0.1542
      8 C         138.9718  140.4395  161.8688 C.2     1  UNL1        0.2438
      9 O         137.4791  140.2981  161.9159 O.2     1  UNL1       -0.2731
     10 N         139.7392  140.7129  163.1283 N.am    1  UNL1       -0.2779
     11 C         141.2262  140.8780  163.2364 C.3     1  UNL1        0.0939
     12 C         141.5606  141.1364  164.6756 C.3     1  UNL1        0.0276
     13 C         140.2802  141.1310  165.4571 C.3     1  UNL1        0.0439
     14 C         139.1546  140.8693  164.5008 C.3     1  UNL1        0.0978
     15 C         140.1486  141.3491  166.9353 C.ar    1  UNL1       -0.0208
     16 C         140.5703  142.6548  167.5412 C.ar    1  UNL1       -0.0042
     17 C         140.4387  142.8729  169.0194 C.ar    1  UNL1       -0.0003
     18 C         139.8854  141.7852  169.8917 C.ar    1  UNL1       -0.0000
     19 C         139.4638  140.4795  169.2857 C.ar    1  UNL1       -0.0003
     20 C         139.5954  140.2614  167.8075 C.ar    1  UNL1       -0.0042
     21 C         139.2077  144.6163  156.1288 C.ar    1  UNL1        0.1361
     22 C         138.9419  143.6362  157.2329 C.ar    1  UNL1        0.0411
     23 C         139.6450  143.7812  158.5499 C.ar    1  UNL1        0.0566
     24 C         140.6139  144.9064  158.7629 C.ar    1  UNL1        0.0044
     25 C         140.8796  145.8865  157.6589 C.ar    1  UNL1        0.0002
     26 C         140.1765  145.7414  156.3419 C.ar    1  UNL1        0.0274
     27 C         140.4422  146.7215  155.2379 C.3     1  UNL1        0.0952
     28 N         139.3232  147.1637  154.3422 N.3     1  UNL1       -0.3174
     29 H         138.9952  146.3706  153.7910 H       1  UNL1        0.1192
     30 H         139.6577  147.8971  153.7170 H       1  UNL1        0.1192
     31 C         137.0594  144.0709  154.7732 C.3     1  UNL1        0.2525
     32 O         138.5045  144.4713  154.8118 O.3     1  UNL1       -0.4717
     33 N         141.7202  138.4332  157.8313 N.ar    1  UNL1       -0.2307
     34 C         141.1321  137.3058  157.0357 C.ar    1  UNL1        0.1131
     35 C         142.2503  136.6173  156.3107 C.ar    1  UNL1        0.1005
     36 N         143.5296  137.3192  156.6583 N.ar    1  UNL1       -0.1332
     37 N         143.2020  138.4416  157.5981 N.ar    1  UNL1       -0.0641
     38 C         142.1133  135.4346  155.3984 C.3     1  UNL1        0.0437
     39 C         141.4583  134.1305  155.0516 C.3     1  UNL1        0.0064
     40 C         142.5310  134.6901  154.1650 C.3     1  UNL1        0.0064
@<TRIPOS>BOND
     1    31    32    1
     2    32    21    1
     3    21    22   ar
     4    22    23   ar
     5    23     1    1
     6     1     2    2
     7     1     3   am
     8     3     4    1
     9     4     5    1
    10     5    33    1
    11    33    34   ar
    12    34    35   ar
    13    35    38    1
    14    38    39    1
    15    39    40    1
    16    35    36   ar
    17    36    37   ar
    18     5     6    1
    19     6     7    1
    20     7     8    1
    21     8     9    2
    22     8    10   am
    23    10    11    1
    24    11    12    1
    25    12    13    1
    26    13    15    1
    27    15    16   ar
    28    16    17   ar
    29    17    18   ar
    30    18    19   ar
    31    19    20   ar
    32    13    14    1
    33    23    24   ar
    34    24    25   ar
    35    25    26   ar
    36    26    27    1
    37    27    28    1
    38    26    21   ar
    39     7     3    1
    40    14    10    1
    41    37    33   ar
    42    20    15   ar
    43    40    38    1
    44    28    29    1
    45    28    30    1
@<TRIPOS>MOLECULE
*****
 40 45 0 0 0
SMALL
GASTEIGER

@<TRIPOS>ATOM
      1 C         142.3286  140.8858  159.8389 C.2     1  UNL1        0.2495
      2 O         143.0751  140.6244  161.1135 O.2     1  UNL1       -0.2699
      3 N         141.8463  142.2705  159.5227 N.am    1  UNL1       -0.2674
      4 C         141.0907  142.6818  158.2939 C.3     1  UNL1        0.1185
      5 C         140.8122  144.1525  158.3915 C.3     1  UNL1        0.1288
      6 C         141.3956  144.6501  159.6807 C.3     1  UNL1        0.0554
      7 C         142.0347  143.4870  160.3798 C.3     1  UNL1        0.1542
      8 C         142.7386  143.5324  161.7036 C.2     1  UNL1        0.2438
      9 O         144.1811  143.9383  161.7725 O.2     1  UNL1       -0.2731
     10 N         142.0003  143.1719  162.9585 N.am    1  UNL1       -0.2779
     11 C         140.5637  142.7493  163.0456 C.3     1  UNL1        0.0939
     12 C         140.2443  142.4869  164.4876 C.3     1  UNL1        0.0276
     13 C         141.4835  142.7475  165.2916 C.3     1  UNL1        0.0439
     14 C         142.5687  143.1708  164.3466 C.3     1  UNL1        0.0978
     15 C         141.6144  142.6090  166.7795 C.ar    1  UNL1       -0.0208
     16 C         140.4212  142.8300  167.6611 C.ar    1  UNL1       -0.0042
     17 C         140.5522  142.6915  169.1490 C.ar    1  UNL1       -0.0003
     18 C         141.8763  142.3321  169.7551 C.ar    1  UNL1       -0.0000
     19 C         143.0695  142.1112  168.8734 C.ar    1  UNL1       -0.0003
     20 C         142.9386  142.2497  167.3856 C.ar    1  UNL1       -0.0042
     21 C         142.9054  138.1231  157.0487 C.ar    1  UNL1        0.1361
     22 C         143.1695  139.2464  158.0071 C.ar    1  UNL1        0.0411
     23 C         142.0646  139.7625  158.8805 C.ar    1  UNL1        0.0566
     24 C         140.6956  139.1552  158.7956 C.ar    1  UNL1        0.0044
     25 C         140.4316  138.0319  157.8373 C.ar    1  UNL1        0.0002
     26 C         141.5364  137.5159  156.9638 C.ar    1  UNL1        0.0274
     27 C         141.2724  136.3926  156.0055 C.3     1  UNL1        0.0952
     28 N         139.8624  136.0349  155.6393 N.3     1  UNL1       -0.3174
     29 H         139.3784  135.6749  156.4618 H       1  UNL1        0.1192
     30 H         139.8710  135.3214  154.9104 H       1  UNL1        0.1192
     31 C         144.6530  138.5116  155.1659 C.3     1  UNL1        0.2525
     32 O         144.0102  137.6070  156.1753 O.3     1  UNL1       -0.4717
     33 N         140.0790  144.9802  157.3779 N.ar    1  UNL1       -0.2307
     34 C         140.2051  146.4634  157.1931 C.ar    1  UNL1        0.1131
     35 C         139.2950  146.8698  156.0721 C.ar    1  UNL1        0.1005
     36 N         138.6065  145.6378  155.5641 N.ar    1  UNL1       -0.1332
     37 N         139.0910  144.4699  156.3712 N.ar    1  UNL1       -0.0641
     38 C         139.1066  148.2636  155.5507 C.3     1  UNL1        0.0437
     39 C         138.5372  149.6426  155.7057 C.3     1  UNL1        0.0064
     40 C         139.3496  149.2986  154.4926 C.3     1  UNL1        0.0064
@<TRIPOS>BOND
     1    31    32    1
     2    32    21    1
     3    21    22   ar
     4    22    23   ar
     5    23     1    1
     6     1     2    2
     7     1     3   am
     8     3     4    1
     9     4     5    1
    10     5    33    1
    11    33    34   ar
    12    34    35   ar
    13    35    38    1
    14    38    39    1
    15    39    40    1
    16    35    36   ar
    17    36    37   ar
    18     5     6    1
    19     6     7    1
    20     7     8    1
    21     8     9    2
    22     8    10   am
    23    10    11    1
    24    11    12    1
    25    12    13    1
    26    13    15    1
    27    15    16   ar
    28    16    17   ar
    29    17    18   ar
    30    18    19   ar
    31    19    20   ar
    32    13    14    1
    33    23    24   ar
    34    24    25   ar
    35    25    26   ar
    36    26    27    1
    37    27    28    1
    38    26    21   ar
    39     7     3    1
    40    14    10    1
    41    37    33   ar
    42    20    15   ar
    43    40    38    1
    44    28    29    1
    45    28    30    1
@<TRIPOS>MOLECULE
*****
 40 45 0 0 0
SMALL
GASTEIGER

@<TRIPOS>ATOM
      1 C         140.8077  143.7423  159.4739 C.2     1  UNL1        0.2495
      2 O         140.3435  144.1913  160.8278 O.2     1  UNL1       -0.2699
      3 N         142.2017  143.2183  159.2947 N.am    1  UNL1       -0.2674
      4 C         142.8037  142.7356  158.0084 C.3     1  UNL1        0.1185
      5 C         144.2126  142.3041  158.2890 C.3     1  UNL1        0.1288
      6 C         144.4814  142.5201  159.7488 C.3     1  UNL1        0.0554
      7 C         143.2387  143.0851  160.3704 C.3     1  UNL1        0.1542
      8 C         143.0636  143.4525  161.8141 C.2     1  UNL1        0.2438
      9 O         143.6496  144.7295  162.3395 O.2     1  UNL1       -0.2731
     10 N         142.3025  142.5430  162.7326 N.am    1  UNL1       -0.2779
     11 C         141.6632  141.2403  162.3527 C.3     1  UNL1        0.0939
     12 C         141.0127  140.6686  163.5774 C.3     1  UNL1        0.0276
     13 C         141.2500  141.6179  164.7142 C.3     1  UNL1        0.0439
     14 C         142.0471  142.7763  164.1921 C.3     1  UNL1        0.0978
     15 C         140.7737  141.4400  166.1255 C.ar    1  UNL1       -0.0208
     16 C         140.0419  140.1910  166.5182 C.ar    1  UNL1       -0.0042
     17 C         139.5657  140.0131  167.9294 C.ar    1  UNL1       -0.0003
     18 C         139.8212  141.0843  168.9479 C.ar    1  UNL1       -0.0000
     19 C         140.5530  142.3334  168.5551 C.ar    1  UNL1       -0.0003
     20 C         141.0292  142.5112  167.1439 C.ar    1  UNL1       -0.0042
     21 C         139.1122  144.9810  156.1063 C.ar    1  UNL1        0.1361
     22 C         140.0421  144.9062  157.2809 C.ar    1  UNL1        0.0411
     23 C         139.8778  143.8172  158.2993 C.ar    1  UNL1        0.0566
     24 C         138.7836  142.8030  158.1431 C.ar    1  UNL1        0.0044
     25 C         137.8538  142.8779  156.9685 C.ar    1  UNL1        0.0002
     26 C         138.0181  143.9669  155.9501 C.ar    1  UNL1        0.0274
     27 C         137.0882  144.0418  154.7755 C.3     1  UNL1        0.0952
     28 N         137.6410  144.2029  153.3904 N.3     1  UNL1       -0.3174
     29 H         138.0931  145.1136  153.3085 H       1  UNL1        0.1192
     30 H         136.8823  144.1377  152.7118 H       1  UNL1        0.1192
     31 C         138.9417  147.4879  155.4454 C.3     1  UNL1        0.2525
     32 O         139.2765  146.0700  155.0879 O.3     1  UNL1       -0.4717
     33 N         145.1823  141.7533  157.2860 N.ar    1  UNL1       -0.2307
     34 C         146.4622  142.4019  156.8486 C.ar    1  UNL1        0.1131
     35 C         147.1133  141.5066  155.8365 C.ar    1  UNL1        0.1005
     36 N         146.2360  140.3046  155.6483 N.ar    1  UNL1       -0.1332
     37 N         145.0425  140.4570  156.5442 N.ar    1  UNL1       -0.0641
     38 C         148.4136  141.7675  155.1355 C.3     1  UNL1        0.0437
     39 C         149.9129  141.7275  155.1221 C.3     1  UNL1        0.0064
     40 C         149.1662  142.2594  153.9349 C.3     1  UNL1        0.0064
@<TRIPOS>BOND
     1    31    32    1
     2    32    21    1
     3    21    22   ar
     4    22    23   ar
     5    23     1    1
     6     1     2    2
     7     1     3   am
     8     3     4    1
     9     4     5    1
    10     5    33    1
    11    33    34   ar
    12    34    35   ar
    13    35    38    1
    14    38    39    1
    15    39    40    1
    16    35    36   ar
    17    36    37   ar
    18     5     6    1
    19     6     7    1
    20     7     8    1
    21     8     9    2
    22     8    10   am
    23    10    11    1
    24    11    12    1
    25    12    13    1
    26    13    15    1
    27    15    16   ar
    28    16    17   ar
    29    17    18   ar
    30    18    19   ar
    31    19    20   ar
    32    13    14    1
    33    23    24   ar
    34    24    25   ar
    35    25    26   ar
    36    26    27    1
    37    27    28    1
    38    26    21   ar
    39     7     3    1
    40    14    10    1
    41    37    33   ar
    42    20    15   ar
    43    40    38    1
    44    28    29    1
    45    28    30    1
@<TRIPOS>MOLECULE
*****
 40 45 0 0 0
SMALL
GASTEIGER

@<TRIPOS>ATOM
      1 C         140.7611  142.5965  160.1347 C.2     1  UNL1        0.2495
      2 O         140.4101  143.0930  161.5060 O.2     1  UNL1       -0.2699
      3 N         142.1996  142.4523  159.7347 N.am    1  UNL1       -0.2674
      4 C         142.7012  141.9711  158.4055 C.3     1  UNL1        0.1185
      5 C         144.2007  141.9854  158.4430 C.3     1  UNL1        0.1288
      6 C         144.6258  142.4755  159.7955 C.3     1  UNL1        0.0554
      7 C         143.3891  142.7640  160.5937 C.3     1  UNL1        0.1542
      8 C         143.3489  143.2747  162.0036 C.2     1  UNL1        0.2438
      9 O         143.4278  144.7488  162.2699 O.2     1  UNL1       -0.2731
     10 N         143.2300  142.3114  163.1472 N.am    1  UNL1       -0.2779
     11 C         143.1420  140.8181  163.0365 C.3     1  UNL1        0.0939
     12 C         143.0357  140.2559  164.4231 C.3     1  UNL1        0.0276
     13 C         143.0581  141.4018  165.3908 C.3     1  UNL1        0.0439
     14 C         143.1781  142.6721  164.6022 C.3     1  UNL1        0.0978
     15 C         142.9749  141.2959  166.8848 C.ar    1  UNL1       -0.0208
     16 C         142.6566  139.9782  167.5266 C.ar    1  UNL1       -0.0042
     17 C         142.5734  139.8723  169.0206 C.ar    1  UNL1       -0.0003
     18 C         142.8087  141.0842  169.8726 C.ar    1  UNL1       -0.0000
     19 C         143.1271  142.4020  169.2306 C.ar    1  UNL1       -0.0003
     20 C         143.2102  142.5078  167.7368 C.ar    1  UNL1       -0.0042
     21 C         138.2523  142.8274  157.0683 C.ar    1  UNL1        0.1361
     22 C         139.3398  143.1798  158.0396 C.ar    1  UNL1        0.0411
     23 C         139.6737  142.2441  159.1635 C.ar    1  UNL1        0.0566
     24 C         138.9201  140.9561  159.3161 C.ar    1  UNL1        0.0044
     25 C         137.8327  140.6038  158.3449 C.ar    1  UNL1        0.0002
     26 C         137.4988  141.5394  157.2210 C.ar    1  UNL1        0.0274
     27 C         136.4113  141.1871  156.2497 C.3     1  UNL1        0.0952
     28 N         135.5060  142.2577  155.7167 N.3     1  UNL1       -0.3174
     29 H         134.9401  142.6342  156.4773 H       1  UNL1        0.1192
     30 H         134.8951  141.8618  155.0023 H       1  UNL1        0.1192
     31 C         138.8119  144.9315  155.6507 C.3     1  UNL1        0.2525
     32 O         137.9184  143.7630  155.9444 O.3     1  UNL1       -0.4717
     33 N         145.1145  141.5807  157.3245 N.ar    1  UNL1       -0.2307
     34 C         146.1968  142.4256  156.7206 C.ar    1  UNL1        0.1131
     35 C         146.8577  141.6271  155.6364 C.ar    1  UNL1        0.1005
     36 N         146.1838  140.2886  155.5701 N.ar    1  UNL1       -0.1332
     37 N         145.1064  140.2599  156.6135 N.ar    1  UNL1       -0.0641
     38 C         147.9931  142.0864  154.7704 C.3     1  UNL1        0.0437
     39 C         148.5748  143.0820  153.8112 C.3     1  UNL1        0.0064
     40 C         149.3779  141.8863  154.2298 C.3     1  UNL1        0.0064
@<TRIPOS>BOND
     1    31    32    1
     2    32    21    1
     3    21    22   ar
     4    22    23   ar
     5    23     1    1
     6     1     2    2
     7     1     3   am
     8     3     4    1
     9     4     5    1
    10     5    33    1
    11    33    34   ar
    12    34    35   ar
    13    35    38    1
    14    38    39    1
    15    39    40    1
    16    35    36   ar
    17    36    37   ar
    18     5     6    1
    19     6     7    1
    20     7     8    1
    21     8     9    2
    22     8    10   am
    23    10    11    1
    24    11    12    1
    25    12    13    1
    26    13    15    1
    27    15    16   ar
    28    16    17   ar
    29    17    18   ar
    30    18    19   ar
    31    19    20   ar
    32    13    14    1
    33    23    24   ar
    34    24    25   ar
    35    25    26   ar
    36    26    27    1
    37    27    28    1
    38    26    21   ar
    39     7     3    1
    40    14    10    1
    41    37    33   ar
    42    20    15   ar
    43    40    38    1
    44    28    29    1
    45    28    30    1
@<TRIPOS>MOLECULE
*****
 40 45 0 0 0
SMALL
GASTEIGER

@<TRIPOS>ATOM
      1 C         143.2528  137.2206  155.6866 C.2     1  UNL1        0.2495
      2 O         144.7260  137.4201  155.8871 O.2     1  UNL1       -0.2699
      3 N         142.2949  138.3279  156.0126 N.am    1  UNL1       -0.2674
      4 C         140.8031  138.2753  155.8646 C.3     1  UNL1        0.1185
      5 C         140.2468  139.5971  156.3044 C.3     1  UNL1        0.1288
      6 C         141.3947  140.4666  156.7242 C.3     1  UNL1        0.0554
      7 C         142.6605  139.6822  156.5439 C.3     1  UNL1        0.1542
      8 C         144.0482  140.1670  156.8424 C.2     1  UNL1        0.2438
      9 O         144.5441  140.1965  158.2578 O.2     1  UNL1       -0.2731
     10 N         144.9402  140.6223  155.7257 N.am    1  UNL1       -0.2779
     11 C         144.5846  140.6497  154.2687 C.3     1  UNL1        0.0939
     12 C         145.7689  141.1745  153.5123 C.3     1  UNL1        0.0276
     13 C         146.8564  141.4714  154.5018 C.3     1  UNL1        0.0439
     14 C         146.3442  141.1302  155.8697 C.3     1  UNL1        0.0978
     15 C         148.2171  142.0143  154.1799 C.ar    1  UNL1       -0.0208
     16 C         149.4161  141.5330  154.9419 C.ar    1  UNL1       -0.0042
     17 C         150.7769  142.0759  154.6200 C.ar    1  UNL1       -0.0003
     18 C         150.9386  143.1001  153.5361 C.ar    1  UNL1       -0.0000
     19 C         149.7396  143.5814  152.7742 C.ar    1  UNL1       -0.0003
     20 C         148.3789  143.0385  153.0960 C.ar    1  UNL1       -0.0042
     21 C         142.1100  133.4227  155.5466 C.ar    1  UNL1        0.1361
     22 C         142.6252  134.7294  156.0732 C.ar    1  UNL1        0.0411
     23 C         142.7377  135.9140  155.1600 C.ar    1  UNL1        0.0566
     24 C         142.3351  135.7920  153.7202 C.ar    1  UNL1        0.0044
     25 C         141.8200  134.4854  153.1936 C.ar    1  UNL1        0.0002
     26 C         141.7074  133.3007  154.1068 C.ar    1  UNL1        0.0274
     27 C         141.1923  131.9941  153.5802 C.3     1  UNL1        0.0952
     28 N         140.3611  131.1068  154.4587 N.3     1  UNL1       -0.3174
     29 H         140.9302  130.7661  155.2336 H       1  UNL1        0.1192
     30 H         140.0181  130.3149  153.9149 H       1  UNL1        0.1192
     31 C         143.2321  131.5020  156.8890 C.3     1  UNL1        0.2525
     32 O         141.9975  132.2380  156.4598 O.3     1  UNL1       -0.4717
     33 N         138.7970  139.9818  156.3214 N.ar    1  UNL1       -0.2307
     34 C         137.9308  140.2082  155.1180 C.ar    1  UNL1        0.1131
     35 C         136.5574  140.5739  155.5977 C.ar    1  UNL1        0.1005
     36 N         136.5749  140.5736  157.0976 N.ar    1  UNL1       -0.1332
     37 N         137.9591  140.2076  157.5449 N.ar    1  UNL1       -0.0641
     38 C         135.3742  140.8854  154.7298 C.3     1  UNL1        0.0437
     39 C         134.8068  141.2620  153.3933 C.3     1  UNL1        0.0064
     40 C         133.8925  141.0482  154.5631 C.3     1  UNL1        0.0064
@<TRIPOS>BOND
     1    31    32    1
     2    32    21    1
     3    21    22   ar
     4    22    23   ar
     5    23     1    1
     6     1     2    2
     7     1     3   am
     8     3     4    1
     9     4     5    1
    10     5    33    1
    11    33    34   ar
    12    34    35   ar
    13    35    38    1
    14    38    39    1
    15    39    40    1
    16    35    36   ar
    17    36    37   ar
    18     5     6    1
    19     6     7    1
    20     7     8    1
    21     8     9    2
    22     8    10   am
    23    10    11    1
    24    11    12    1
    25    12    13    1
    26    13    15    1
    27    15    16   ar
    28    16    17   ar
    29    17    18   ar
    30    18    19   ar
    31    19    20   ar
    32    13    14    1
    33    23    24   ar
    34    24    25   ar
    35    25    26   ar
    36    26    27    1
    37    27    28    1
    38    26    21   ar
    39     7     3    1
    40    14    10    1
    41    37    33   ar
    42    20    15   ar
    43    40    38    1
    44    28    29    1
    45    28    30    1
@<TRIPOS>MOLECULE
*****
 40 45 0 0 0
SMALL
GASTEIGER

@<TRIPOS>ATOM
      1 C         140.2521  139.2860  160.0273 C.2     1  UNL1        0.2495
      2 O         139.7597  138.5923  161.2628 O.2     1  UNL1       -0.2699
      3 N         140.2607  140.7845  159.9615 N.am    1  UNL1       -0.2674
      4 C         140.7218  141.6134  158.7995 C.3     1  UNL1        0.1185
      5 C         140.5557  143.0585  159.1661 C.3     1  UNL1        0.1288
      6 C         139.9920  143.1226  160.5546 C.3     1  UNL1        0.0554
      7 C         139.8097  141.7173  161.0462 C.3     1  UNL1        0.1542
      8 C         139.2709  141.3152  162.3872 C.2     1  UNL1        0.2438
      9 O         137.7972  141.1034  162.5706 O.2     1  UNL1       -0.2731
     10 N         140.2056  141.1249  163.5448 N.am    1  UNL1       -0.2779
     11 C         141.6951  141.2998  163.5132 C.3     1  UNL1        0.0939
     12 C         142.2251  141.0093  164.8860 C.3     1  UNL1        0.0276
     13 C         141.0632  140.6550  165.7661 C.3     1  UNL1        0.0439
     14 C         139.8152  140.7264  164.9372 C.3     1  UNL1        0.0978
     15 C         141.1366  140.2927  167.2199 C.ar    1  UNL1       -0.0208
     16 C         142.3865  139.6792  167.7777 C.ar    1  UNL1       -0.0042
     17 C         142.4599  139.3170  169.2315 C.ar    1  UNL1       -0.0003
     18 C         141.2833  139.5683  170.1273 C.ar    1  UNL1       -0.0000
     19 C         140.0334  140.1818  169.5694 C.ar    1  UNL1       -0.0003
     20 C         139.9601  140.5440  168.1157 C.ar    1  UNL1       -0.0042
     21 C         140.2528  137.2344  156.6301 C.ar    1  UNL1        0.1361
     22 C         139.7688  138.0392  157.7998 C.ar    1  UNL1        0.0411
     23 C         140.7360  138.4812  158.8577 C.ar    1  UNL1        0.0566
     24 C         142.1872  138.1182  158.7459 C.ar    1  UNL1        0.0044
     25 C         142.6711  137.3134  157.5763 C.ar    1  UNL1        0.0002
     26 C         141.7039  136.8715  156.5184 C.ar    1  UNL1        0.0274
     27 C         142.1878  136.0666  155.3488 C.3     1  UNL1        0.0952
     28 N         141.4967  134.7870  154.9815 N.3     1  UNL1       -0.3174
     29 H         141.6297  134.1029  155.7262 H       1  UNL1        0.1192
     30 H         141.8904  134.4251  154.1130 H       1  UNL1        0.1192
     31 C         138.5825  137.8119  154.7257 C.3     1  UNL1        0.2525
     32 O         139.2856  136.7924  155.5722 O.3     1  UNL1       -0.4717
     33 N         140.8940  144.2331  158.2967 N.ar    1  UNL1       -0.2307
     34 C         140.0178  144.8231  157.2317 C.ar    1  UNL1        0.1131
     35 C         140.7502  145.9786  156.6165 C.ar    1  UNL1        0.1005
     36 N         142.0790  146.1027  157.3012 N.ar    1  UNL1       -0.1332
     37 N         142.1679  145.0239  158.3397 N.ar    1  UNL1       -0.0641
     38 C         140.2429  146.8559  155.5106 C.3     1  UNL1        0.0437
     39 C         139.2198  147.8156  154.9794 C.3     1  UNL1        0.0064
     40 C         140.3871  147.4157  154.1265 C.3     1  UNL1        0.0064
@<TRIPOS>BOND
     1    31    32    1
     2    32    21    1
     3    21    22   ar
     4    22    23   ar
     5    23     1    1
     6     1     2    2
     7     1     3   am
     8     3     4    1
     9     4     5    1
    10     5    33    1
    11    33    34   ar
    12    34    35   ar
    13    35    38    1
    14    38    39    1
    15    39    40    1
    16    35    36   ar
    17    36    37   ar
    18     5     6    1
    19     6     7    1
    20     7     8    1
    21     8     9    2
    22     8    10   am
    23    10    11    1
    24    11    12    1
    25    12    13    1
    26    13    15    1
    27    15    16   ar
    28    16    17   ar
    29    17    18   ar
    30    18    19   ar
    31    19    20   ar
    32    13    14    1
    33    23    24   ar
    34    24    25   ar
    35    25    26   ar
    36    26    27    1
    37    27    28    1
    38    26    21   ar
    39     7     3    1
    40    14    10    1
    41    37    33   ar
    42    20    15   ar
    43    40    38    1
    44    28    29    1
    45    28    30    1
@<TRIPOS>MOLECULE
*****
 40 45 0 0 0
SMALL
GASTEIGER

@<TRIPOS>ATOM
      1 C         141.8084  139.4868  157.1988 C.2     1  UNL1        0.2495
      2 O         142.3518  140.5810  156.3284 O.2     1  UNL1       -0.2699
      3 N         141.3576  139.7941  158.5961 N.am    1  UNL1       -0.2674
      4 C         140.7956  138.8092  159.5779 C.3     1  UNL1        0.1185
      5 C         140.4802  139.5466  160.8455 C.3     1  UNL1        0.1288
      6 C         140.8473  140.9874  160.6470 C.3     1  UNL1        0.0554
      7 C         141.3895  141.1403  159.2568 C.3     1  UNL1        0.1542
      8 C         141.8780  142.4157  158.6364 C.2     1  UNL1        0.2438
      9 O         143.2959  142.8575  158.8475 O.2     1  UNL1       -0.2731
     10 N         140.9487  143.2493  157.8048 N.am    1  UNL1       -0.2779
     11 C         139.5120  142.9372  157.5072 C.3     1  UNL1        0.0939
     12 C         138.9682  144.0362  156.6433 C.3     1  UNL1        0.0276
     13 C         140.0688  145.0276  156.4069 C.3     1  UNL1        0.0439
     14 C         141.2928  144.5412  157.1248 C.3     1  UNL1        0.0978
     15 C         139.9639  146.2847  155.5952 C.ar    1  UNL1       -0.0208
     16 C         139.0771  147.4031  156.0562 C.ar    1  UNL1       -0.0042
     17 C         138.9721  148.6602  155.2445 C.ar    1  UNL1       -0.0003
     18 C         139.7539  148.7987  153.9719 C.ar    1  UNL1       -0.0000
     19 C         140.6407  147.6801  153.5110 C.ar    1  UNL1       -0.0003
     20 C         140.7456  146.4231  154.3226 C.ar    1  UNL1       -0.0042
     21 C         142.7218  135.7023  156.4282 C.ar    1  UNL1        0.1361
     22 C         142.8143  137.1038  156.9551 C.ar    1  UNL1        0.0411
     23 C         141.7160  138.0854  156.6721 C.ar    1  UNL1        0.0566
     24 C         140.5251  137.6656  155.8623 C.ar    1  UNL1        0.0044
     25 C         140.4327  136.2642  155.3355 C.ar    1  UNL1        0.0002
     26 C         141.5310  135.2826  155.6185 C.ar    1  UNL1        0.0274
     27 C         141.4386  133.8812  155.0917 C.3     1  UNL1        0.0952
     28 N         142.6048  133.2723  154.3711 N.3     1  UNL1       -0.3174
     29 H         142.7633  133.7732  153.4968 H       1  UNL1        0.1192
     30 H         142.4063  132.2922  154.1703 H       1  UNL1        0.1192
     31 C         143.7661  133.8701  157.9456 C.3     1  UNL1        0.2525
     32 O         143.8201  134.7207  156.7112 O.3     1  UNL1       -0.4717
     33 N         139.8997  138.9484  162.0925 N.ar    1  UNL1       -0.2307
     34 C         139.7192  139.6503  163.4058 C.ar    1  UNL1        0.1131
     35 C         139.1057  138.6788  164.3701 C.ar    1  UNL1        0.1005
     36 N         138.9070  137.3765  163.6528 N.ar    1  UNL1       -0.1332
     37 N         139.3977  137.5431  162.2450 N.ar    1  UNL1       -0.0641
     38 C         138.7528  138.9602  165.8005 C.3     1  UNL1        0.0437
     39 C         137.8519  138.7514  166.9816 C.3     1  UNL1        0.0064
     40 C         139.0424  139.6566  167.0971 C.3     1  UNL1        0.0064
@<TRIPOS>BOND
     1    31    32    1
     2    32    21    1
     3    21    22   ar
     4    22    23   ar
     5    23     1    1
     6     1     2    2
     7     1     3   am
     8     3     4    1
     9     4     5    1
    10     5    33    1
    11    33    34   ar
    12    34    35   ar
    13    35    38    1
    14    38    39    1
    15    39    40    1
    16    35    36   ar
    17    36    37   ar
    18     5     6    1
    19     6     7    1
    20     7     8    1
    21     8     9    2
    22     8    10   am
    23    10    11    1
    24    11    12    1
    25    12    13    1
    26    13    15    1
    27    15    16   ar
    28    16    17   ar
    29    17    18   ar
    30    18    19   ar
    31    19    20   ar
    32    13    14    1
    33    23    24   ar
    34    24    25   ar
    35    25    26   ar
    36    26    27    1
    37    27    28    1
    38    26    21   ar
    39     7     3    1
    40    14    10    1
    41    37    33   ar
    42    20    15   ar
    43    40    38    1
    44    28    29    1
    45    28    30    1
@<TRIPOS>MOLECULE
*****
 40 45 0 0 0
SMALL
GASTEIGER

@<TRIPOS>ATOM
      1 C         140.2332  138.6541  157.7017 C.2     1  UNL1        0.2495
      2 O         139.3494  137.5258  157.2591 O.2     1  UNL1       -0.2699
      3 N         141.5546  138.8800  157.0289 N.am    1  UNL1       -0.2674
      4 C         142.5398  139.9613  157.3611 C.3     1  UNL1        0.1185
      5 C         143.7170  139.8139  156.4432 C.3     1  UNL1        0.1288
      6 C         143.4594  138.6415  155.5437 C.3     1  UNL1        0.0554
      7 C         142.1230  138.0644  155.9057 C.3     1  UNL1        0.1542
      8 C         141.4697  136.8795  155.2581 C.2     1  UNL1        0.2438
      9 O         140.4162  137.0838  154.2099 O.2     1  UNL1       -0.2731
     10 N         141.8698  135.4904  155.6585 N.am    1  UNL1       -0.2779
     11 C         142.9022  135.1320  156.6860 C.3     1  UNL1        0.0939
     12 C         142.9782  133.6360  156.7643 C.3     1  UNL1        0.0276
     13 C         141.9928  133.0698  155.7853 C.3     1  UNL1        0.0439
     14 C         141.3078  134.2159  155.1019 C.3     1  UNL1        0.0978
     15 C         141.7374  131.6133  155.5339 C.ar    1  UNL1       -0.0208
     16 C         142.6683  130.5805  156.0966 C.ar    1  UNL1       -0.0042
     17 C         142.4128  129.1240  155.8451 C.ar    1  UNL1       -0.0003
     18 C         141.2264  128.7002  155.0310 C.ar    1  UNL1       -0.0000
     19 C         140.2955  129.7331  154.4683 C.ar    1  UNL1       -0.0003
     20 C         140.5510  131.1895  154.7197 C.ar    1  UNL1       -0.0042
     21 C         139.1721  141.9259  159.6815 C.ar    1  UNL1        0.1361
     22 C         139.6098  141.0236  158.5660 C.ar    1  UNL1        0.0411
     23 C         139.7955  139.5564  158.8171 C.ar    1  UNL1        0.0566
     24 C         139.5435  138.9917  160.1837 C.ar    1  UNL1        0.0044
     25 C         139.1058  139.8940  161.2992 C.ar    1  UNL1        0.0002
     26 C         138.9201  141.3611  161.0480 C.ar    1  UNL1        0.0274
     27 C         138.4824  142.2635  162.1634 C.3     1  UNL1        0.0952
     28 N         137.5165  143.3783  161.8911 N.3     1  UNL1       -0.3174
     29 H         137.9546  144.0654  161.2776 H       1  UNL1        0.1192
     30 H         137.2560  143.8248  162.7704 H       1  UNL1        0.1192
     31 C         139.9297  144.1236  158.5212 C.3     1  UNL1        0.2525
     32 O         138.9864  143.3930  159.4304 O.3     1  UNL1       -0.4717
     33 N         144.9374  140.6858  156.4276 N.ar    1  UNL1       -0.2307
     34 C         146.1025  140.5551  155.4919 C.ar    1  UNL1        0.1131
     35 C         147.0922  141.6301  155.8311 C.ar    1  UNL1        0.1005
     36 N         146.5388  142.4251  156.9763 N.ar    1  UNL1       -0.1332
     37 N         145.2070  141.8415  157.3451 N.ar    1  UNL1       -0.0641
     38 C         148.4048  141.8681  155.1453 C.3     1  UNL1        0.0437
     39 C         149.8929  141.6880  155.0897 C.3     1  UNL1        0.0064
     40 C         149.1902  142.4607  154.0130 C.3     1  UNL1        0.0064
@<TRIPOS>BOND
     1    31    32    1
     2    32    21    1
     3    21    22   ar
     4    22    23   ar
     5    23     1    1
     6     1     2    2
     7     1     3   am
     8     3     4    1
     9     4     5    1
    10     5    33    1
    11    33    34   ar
    12    34    35   ar
    13    35    38    1
    14    38    39    1
    15    39    40    1
    16    35    36   ar
    17    36    37   ar
    18     5     6    1
    19     6     7    1
    20     7     8    1
    21     8     9    2
    22     8    10   am
    23    10    11    1
    24    11    12    1
    25    12    13    1
    26    13    15    1
    27    15    16   ar
    28    16    17   ar
    29    17    18   ar
    30    18    19   ar
    31    19    20   ar
    32    13    14    1
    33    23    24   ar
    34    24    25   ar
    35    25    26   ar
    36    26    27    1
    37    27    28    1
    38    26    21   ar
    39     7     3    1
    40    14    10    1
    41    37    33   ar
    42    20    15   ar
    43    40    38    1
    44    28    29    1
    45    28    30    1
