@<TRIPOS>MOLECULE
*****
 31 34 0 0 0
SMALL
GASTEIGER

@<TRIPOS>ATOM
      1 C         140.2299  144.8708  157.5892 C.ar    1  UNL1        0.0033
      2 C         139.2707  143.8462  157.0601 C.ar    1  UNL1        0.0024
      3 C         138.2982  144.2165  155.9797 C.ar    1  UNL1        0.0296
      4 C         138.2850  145.6114  155.4284 C.ar    1  UNL1        0.1402
      5 F         137.3127  145.9817  154.3480 F       1  UNL1       -0.2042
      6 C         139.2444  146.6361  155.9575 C.ar    1  UNL1        0.0304
      7 C         140.2168  146.2657  157.0378 C.ar    1  UNL1        0.0024
      8 N         141.3696  145.0456  162.4731 N.ar    1  UNL1       -0.2931
      9 C         140.0680  145.7382  162.1972 C.ar    1  UNL1        0.1797
     10 N         139.7962  145.6447  160.7250 N.ar    1  UNL1       -0.2222
     11 C         140.9299  144.8944  160.0911 C.ar    1  UNL1        0.1203
     12 C         141.2024  144.5005  158.6696 C.ar    1  UNL1        0.0417
     13 C         142.4472  143.7363  158.3285 C.ar    1  UNL1        0.1238
     14 N         143.4196  143.3660  159.4089 N.ar    1  UNL1       -0.1449
     15 N         143.1472  143.7599  160.8304 N.ar    1  UNL1       -0.1285
     16 C         141.9023  144.5241  161.1715 C.ar    1  UNL1        0.1843
     17 C         143.4530  145.3154  164.0018 C.3     1  UNL1        0.0266
     18 C         142.0238  144.9001  163.8151 C.3     1  UNL1        0.1091
     19 C         139.2312  148.0310  155.4061 C.ar    1  UNL1        0.0362
     20 C         139.7559  148.2970  154.0262 C.ar    1  UNL1        0.0044
     21 C         139.7428  149.6920  153.4749 C.ar    1  UNL1        0.0185
     22 C         139.2050  150.8209  154.3035 C.ar    1  UNL1        0.1087
     23 C         138.6804  150.5548  155.6833 C.ar    1  UNL1        0.0552
     24 C         138.6935  149.1599  156.2346 C.ar    1  UNL1        0.1400
     25 S         139.1918  152.2158  153.7522 S.O2    1  UNL1        0.0088
     26 O         139.6453  152.7451  155.0804 O.2     1  UNL1       -0.1686
     27 O         138.7384  151.6866  152.4239 O.2     1  UNL1       -0.1686
     28 C         139.1787  153.6108  153.2008 C.3     1  UNL1        0.1560
     29 C         137.8962  154.3874  153.1559 C.3     1  UNL1        0.0276
     30 O         138.1689  148.8938  157.6145 O.3     1  UNL1       -0.4714
     31 C         137.9999  150.0260  158.5839 C.3     1  UNL1        0.2525
@<TRIPOS>BOND
     1    17    18    1
     2    18     8    1
     3     8     9   ar
     4     9    10   ar
     5    10    11   ar
     6    11    12   ar
     7    12     1    1
     8     1     2   ar
     9     2     3   ar
    10     3     4   ar
    11     4     5    1
    12     4     6   ar
    13     6    19    1
    14    19    20   ar
    15    20    21   ar
    16    21    22   ar
    17    22    25    1
    18    25    26    2
    19    25    27    2
    20    25    28    1
    21    28    29    1
    22    22    23   ar
    23    23    24   ar
    24    24    30    1
    25    30    31    1
    26     6     7   ar
    27    12    13   ar
    28    13    14   ar
    29    14    15   ar
    30    15    16   ar
    31    16     8   ar
    32    16    11   ar
    33     7     1   ar
    34    24    19   ar
@<TRIPOS>MOLECULE
*****
 31 34 0 0 0
SMALL
GASTEIGER

@<TRIPOS>ATOM
      1 C         139.2904  139.2550  164.6283 C.ar    1  UNL1        0.0033
      2 C         138.8822  137.9383  164.0371 C.ar    1  UNL1        0.0024
      3 C         138.9116  137.7423  162.5502 C.ar    1  UNL1        0.0296
      4 C         139.3493  138.8632  161.6546 C.ar    1  UNL1        0.1402
      5 F         139.3788  138.6673  160.1677 F       1  UNL1       -0.2042
      6 C         139.7576  140.1799  162.2458 C.ar    1  UNL1        0.0304
      7 C         139.7281  140.3758  163.7327 C.ar    1  UNL1        0.0024
      8 N         141.6119  141.0838  168.6840 N.ar    1  UNL1       -0.2931
      9 C         142.4135  141.3387  167.4420 C.ar    1  UNL1        0.1797
     10 N         141.6596  140.7667  166.2782 N.ar    1  UNL1       -0.2222
     11 C         140.3921  140.1582  166.8010 C.ar    1  UNL1        0.1203
     12 C         139.2609  139.4510  166.1152 C.ar    1  UNL1        0.0417
     13 C         138.1004  138.9397  166.9162 C.ar    1  UNL1        0.1238
     14 N         138.0710  139.1357  168.4030 N.ar    1  UNL1       -0.1449
     15 N         139.2021  139.8429  169.0889 N.ar    1  UNL1       -0.1285
     16 C         140.3627  140.3541  168.2878 C.ar    1  UNL1        0.1843
     17 C         142.8906  142.6689  170.2972 C.3     1  UNL1        0.0266
     18 C         141.9928  141.4875  170.0775 C.3     1  UNL1        0.1091
     19 C         140.1953  141.3008  161.3502 C.ar    1  UNL1        0.0362
     20 C         141.5367  141.2459  160.6810 C.ar    1  UNL1        0.0044
     21 C         141.9744  142.3668  159.7854 C.ar    1  UNL1        0.0185
     22 C         141.0707  143.5424  159.5589 C.ar    1  UNL1        0.1087
     23 C         139.7294  143.5972  160.2281 C.ar    1  UNL1        0.0552
     24 C         139.2917  142.4764  161.1237 C.ar    1  UNL1        0.1400
     25 S         141.5084  144.6633  158.6633 S.O2    1  UNL1        0.0088
     26 O         140.0860  145.1250  158.5461 O.2     1  UNL1       -0.1686
     27 O         142.9307  144.2015  158.7805 O.2     1  UNL1       -0.1686
     28 C         141.9461  145.7841  157.7677 C.3     1  UNL1        0.1560
     29 C         141.4549  145.8483  156.3519 C.3     1  UNL1        0.0276
     30 O         137.9502  142.5312  161.7929 O.3     1  UNL1       -0.4714
     31 C         137.7087  143.5022  162.9103 C.3     1  UNL1        0.2525
@<TRIPOS>BOND
     1    17    18    1
     2    18     8    1
     3     8     9   ar
     4     9    10   ar
     5    10    11   ar
     6    11    12   ar
     7    12     1    1
     8     1     2   ar
     9     2     3   ar
    10     3     4   ar
    11     4     5    1
    12     4     6   ar
    13     6    19    1
    14    19    20   ar
    15    20    21   ar
    16    21    22   ar
    17    22    25    1
    18    25    26    2
    19    25    27    2
    20    25    28    1
    21    28    29    1
    22    22    23   ar
    23    23    24   ar
    24    24    30    1
    25    30    31    1
    26     6     7   ar
    27    12    13   ar
    28    13    14   ar
    29    14    15   ar
    30    15    16   ar
    31    16     8   ar
    32    16    11   ar
    33     7     1   ar
    34    24    19   ar
@<TRIPOS>MOLECULE
*****
 31 34 0 0 0
SMALL
GASTEIGER

@<TRIPOS>ATOM
      1 C         140.1786  138.8720  164.5177 C.ar    1  UNL1        0.0033
      2 C         140.6592  137.5189  164.0840 C.ar    1  UNL1        0.0024
      3 C         141.2722  137.3403  162.7266 C.ar    1  UNL1        0.0296
      4 C         141.4047  138.5148  161.8030 C.ar    1  UNL1        0.1402
      5 F         142.0176  138.3362  160.4457 F       1  UNL1       -0.2042
      6 C         140.9240  139.8679  162.2368 C.ar    1  UNL1        0.0304
      7 C         140.3111  140.0465  163.5941 C.ar    1  UNL1        0.0024
      8 N         140.5318  140.9856  169.0554 N.ar    1  UNL1       -0.2931
      9 C         141.6990  141.3624  168.1918 C.ar    1  UNL1        0.1797
     10 N         141.5237  140.6965  166.8592 N.ar    1  UNL1       -0.2222
     11 C         140.2481  139.9082  166.8992 C.ar    1  UNL1        0.1203
     12 C         139.5656  139.0507  165.8750 C.ar    1  UNL1        0.0417
     13 C         138.2702  138.3719  166.2081 C.ar    1  UNL1        0.1238
     14 N         137.6572  138.5506  167.5654 N.ar    1  UNL1       -0.1449
     15 N         138.3397  139.4081  168.5896 N.ar    1  UNL1       -0.1285
     16 C         139.6352  140.0868  168.2565 C.ar    1  UNL1        0.1843
     17 C         139.6855  142.7693  170.7442 C.3     1  UNL1        0.0266
     18 C         140.3017  141.4296  170.4695 C.3     1  UNL1        0.1091
     19 C         141.0565  141.0424  161.3132 C.ar    1  UNL1        0.0362
     20 C         139.9770  141.3362  160.3139 C.ar    1  UNL1        0.0044
     21 C         140.1094  142.5107  159.3903 C.ar    1  UNL1        0.0185
     22 C         141.3213  143.3914  159.4660 C.ar    1  UNL1        0.1087
     23 C         142.4007  143.0976  160.4652 C.ar    1  UNL1        0.0552
     24 C         142.2683  141.9231  161.3888 C.ar    1  UNL1        0.1400
     25 S         141.4537  144.5659  158.5424 S.O2    1  UNL1        0.0088
     26 O         139.9657  144.7533  158.5673 O.2     1  UNL1       -0.1686
     27 O         142.9418  144.3785  158.5175 O.2     1  UNL1       -0.1686
     28 C         141.5862  145.7404  157.6188 C.3     1  UNL1        0.1560
     29 C         140.3981  146.2178  156.8375 C.3     1  UNL1        0.0276
     30 O         143.3478  141.6293  162.3880 O.3     1  UNL1       -0.4714
     31 C         144.5259  140.7886  161.9940 C.3     1  UNL1        0.2525
@<TRIPOS>BOND
     1    17    18    1
     2    18     8    1
     3     8     9   ar
     4     9    10   ar
     5    10    11   ar
     6    11    12   ar
     7    12     1    1
     8     1     2   ar
     9     2     3   ar
    10     3     4   ar
    11     4     5    1
    12     4     6   ar
    13     6    19    1
    14    19    20   ar
    15    20    21   ar
    16    21    22   ar
    17    22    25    1
    18    25    26    2
    19    25    27    2
    20    25    28    1
    21    28    29    1
    22    22    23   ar
    23    23    24   ar
    24    24    30    1
    25    30    31    1
    26     6     7   ar
    27    12    13   ar
    28    13    14   ar
    29    14    15   ar
    30    15    16   ar
    31    16     8   ar
    32    16    11   ar
    33     7     1   ar
    34    24    19   ar
@<TRIPOS>MOLECULE
*****
 31 34 0 0 0
SMALL
GASTEIGER

@<TRIPOS>ATOM
      1 C         141.3397  138.8667  160.3949 C.ar    1  UNL1        0.0033
      2 C         139.9502  138.3437  160.1813 C.ar    1  UNL1        0.0024
      3 C         139.0073  138.2237  161.3418 C.ar    1  UNL1        0.0296
      4 C         139.4541  138.6266  162.7159 C.ar    1  UNL1        0.1402
      5 F         138.5113  138.5065  163.8763 F       1  UNL1       -0.2042
      6 C         140.8437  139.1495  162.9295 C.ar    1  UNL1        0.0304
      7 C         141.7865  139.2696  161.7690 C.ar    1  UNL1        0.0024
      8 N         144.6683  141.7153  157.9477 N.ar    1  UNL1       -0.2931
      9 C         144.1254  142.4305  159.1493 C.ar    1  UNL1        0.1797
     10 N         143.1427  141.5210  159.8253 N.ar    1  UNL1       -0.2222
     11 C         143.0782  140.2437  159.0414 C.ar    1  UNL1        0.1203
     12 C         142.2826  138.9867  159.2345 C.ar    1  UNL1        0.0417
     13 C         142.4299  137.8499  158.2671 C.ar    1  UNL1        0.1238
     14 N         143.3728  137.9700  157.1067 N.ar    1  UNL1       -0.1449
     15 N         144.1683  139.2270  156.9137 N.ar    1  UNL1       -0.1285
     16 C         144.0210  140.3638  157.8810 C.ar    1  UNL1        0.1843
     17 C         146.9531  142.8651  157.4925 C.3     1  UNL1        0.0266
     18 C         145.6806  142.2566  156.9822 C.3     1  UNL1        0.1091
     19 C         141.2904  139.5524  164.3035 C.ar    1  UNL1        0.0362
     20 C         142.2412  138.6804  165.0688 C.ar    1  UNL1        0.0044
     21 C         142.6880  139.0833  166.4429 C.ar    1  UNL1        0.0185
     22 C         142.1839  140.3582  167.0517 C.ar    1  UNL1        0.1087
     23 C         141.2331  141.2302  166.2864 C.ar    1  UNL1        0.0552
     24 C         140.7863  140.8273  164.9123 C.ar    1  UNL1        0.1400
     25 S         142.6306  140.7611  168.4258 S.O2    1  UNL1        0.0088
     26 O         142.2351  142.1793  168.1385 O.2     1  UNL1       -0.1686
     27 O         143.0261  139.3430  168.7130 O.2     1  UNL1       -0.1686
     28 C         143.0773  141.1640  169.7999 C.3     1  UNL1        0.1560
     29 C         143.9768  142.3511  169.9781 C.3     1  UNL1        0.0276
     30 O         139.8355  141.6993  164.1471 O.3     1  UNL1       -0.4714
     31 C         138.4102  141.8291  164.5959 C.3     1  UNL1        0.2525
@<TRIPOS>BOND
     1    17    18    1
     2    18     8    1
     3     8     9   ar
     4     9    10   ar
     5    10    11   ar
     6    11    12   ar
     7    12     1    1
     8     1     2   ar
     9     2     3   ar
    10     3     4   ar
    11     4     5    1
    12     4     6   ar
    13     6    19    1
    14    19    20   ar
    15    20    21   ar
    16    21    22   ar
    17    22    25    1
    18    25    26    2
    19    25    27    2
    20    25    28    1
    21    28    29    1
    22    22    23   ar
    23    23    24   ar
    24    24    30    1
    25    30    31    1
    26     6     7   ar
    27    12    13   ar
    28    13    14   ar
    29    14    15   ar
    30    15    16   ar
    31    16     8   ar
    32    16    11   ar
    33     7     1   ar
    34    24    19   ar
@<TRIPOS>MOLECULE
*****
 31 34 0 0 0
SMALL
GASTEIGER

@<TRIPOS>ATOM
      1 C         140.3789  142.4769  160.7583 C.ar    1  UNL1        0.0033
      2 C         140.5205  143.8807  160.2491 C.ar    1  UNL1        0.0024
      3 C         140.9882  144.9689  161.1696 C.ar    1  UNL1        0.0296
      4 C         141.3142  144.6532  162.5993 C.ar    1  UNL1        0.1402
      5 F         141.7819  145.7412  163.5198 F       1  UNL1       -0.2042
      6 C         141.1726  143.2493  163.1085 C.ar    1  UNL1        0.0304
      7 C         140.7050  142.1612  162.1880 C.ar    1  UNL1        0.0024
      8 N         141.6310  138.5380  157.9123 N.ar    1  UNL1       -0.2931
      9 C         142.8393  139.1329  158.5727 C.ar    1  UNL1        0.1797
     10 N         142.3877  140.2986  159.4016 N.ar    1  UNL1       -0.2222
     11 C         140.9002  140.4242  159.2535 C.ar    1  UNL1        0.1203
     12 C         139.9112  141.3888  159.8378 C.ar    1  UNL1        0.0417
     13 C         138.4546  141.2652  159.5017 C.ar    1  UNL1        0.1238
     14 N         137.9870  140.1771  158.5812 N.ar    1  UNL1       -0.1449
     15 N         138.9760  139.2125  157.9969 N.ar    1  UNL1       -0.1285
     16 C         140.4326  139.3360  158.3330 C.ar    1  UNL1        0.1843
     17 C         142.8959  136.6110  156.7138 C.3     1  UNL1        0.0266
     18 C         141.6225  137.3531  156.9926 C.3     1  UNL1        0.1091
     19 C         141.4987  142.9336  164.5382 C.ar    1  UNL1        0.0362
     20 C         142.9002  142.5629  164.9235 C.ar    1  UNL1        0.0044
     21 C         143.2263  142.2472  166.3532 C.ar    1  UNL1        0.0185
     22 C         142.1509  142.3022  167.3975 C.ar    1  UNL1        0.1087
     23 C         140.7495  142.6730  167.0121 C.ar    1  UNL1        0.0552
     24 C         140.4234  142.9887  165.5825 C.ar    1  UNL1        0.1400
     25 S         142.4770  141.9865  168.8272 S.O2    1  UNL1        0.0088
     26 O         143.7903  142.6971  168.6846 O.2     1  UNL1       -0.1686
     27 O         141.1637  141.2759  168.9698 O.2     1  UNL1       -0.1686
     28 C         142.8031  141.6708  170.2569 C.3     1  UNL1        0.1560
     29 C         141.7284  141.1785  171.1802 C.3     1  UNL1        0.0276
     30 O         139.0219  143.3594  165.1971 O.3     1  UNL1       -0.4714
     31 C         138.5774  144.7901  165.2707 C.3     1  UNL1        0.2525
@<TRIPOS>BOND
     1    17    18    1
     2    18     8    1
     3     8     9   ar
     4     9    10   ar
     5    10    11   ar
     6    11    12   ar
     7    12     1    1
     8     1     2   ar
     9     2     3   ar
    10     3     4   ar
    11     4     5    1
    12     4     6   ar
    13     6    19    1
    14    19    20   ar
    15    20    21   ar
    16    21    22   ar
    17    22    25    1
    18    25    26    2
    19    25    27    2
    20    25    28    1
    21    28    29    1
    22    22    23   ar
    23    23    24   ar
    24    24    30    1
    25    30    31    1
    26     6     7   ar
    27    12    13   ar
    28    13    14   ar
    29    14    15   ar
    30    15    16   ar
    31    16     8   ar
    32    16    11   ar
    33     7     1   ar
    34    24    19   ar
@<TRIPOS>MOLECULE
*****
 31 34 0 0 0
SMALL
GASTEIGER

@<TRIPOS>ATOM
      1 C         139.3426  142.0429  164.0556 C.ar    1  UNL1        0.0033
      2 C         138.4716  143.2592  163.9461 C.ar    1  UNL1        0.0024
      3 C         138.6236  144.1878  162.7779 C.ar    1  UNL1        0.0296
      4 C         139.6466  143.9002  161.7193 C.ar    1  UNL1        0.1402
      5 F         139.7986  144.8288  160.5512 F       1  UNL1       -0.2042
      6 C         140.5176  142.6838  161.8288 C.ar    1  UNL1        0.0304
      7 C         140.3656  141.7552  162.9969 C.ar    1  UNL1        0.0024
      8 N         141.0216  140.6449  168.5732 N.ar    1  UNL1       -0.2931
      9 C         141.8258  141.7878  168.0281 C.ar    1  UNL1        0.1797
     10 N         141.2676  142.1475  166.6831 N.ar    1  UNL1       -0.2222
     11 C         140.1183  141.2269  166.3970 C.ar    1  UNL1        0.1203
     12 C         139.1906  141.1142  165.2237 C.ar    1  UNL1        0.0417
     13 C         138.1109  140.0730  165.2186 C.ar    1  UNL1        0.1238
     14 N         137.9590  139.1444  166.3867 N.ar    1  UNL1       -0.1449
     15 N         138.8867  139.2570  167.5600 N.ar    1  UNL1       -0.1285
     16 C         139.9663  140.2983  167.5652 C.ar    1  UNL1        0.1843
     17 C         142.3875  139.0247  170.0762 C.3     1  UNL1        0.0266
     18 C         141.2352  139.9676  169.8944 C.3     1  UNL1        0.1091
     19 C         141.5406  142.3962  160.7702 C.ar    1  UNL1        0.0362
     20 C         141.3363  141.2530  159.8206 C.ar    1  UNL1        0.0044
     21 C         142.3593  140.9654  158.7620 C.ar    1  UNL1        0.0185
     22 C         143.5867  141.8208  158.6529 C.ar    1  UNL1        0.1087
     23 C         143.7910  142.9639  159.6025 C.ar    1  UNL1        0.0552
     24 C         142.7680  143.2515  160.6611 C.ar    1  UNL1        0.1400
     25 S         144.6097  141.5332  157.5943 S.O2    1  UNL1        0.0088
     26 O         143.7446  140.4314  157.0577 O.2     1  UNL1       -0.1686
     27 O         145.4747  142.6349  158.1309 O.2     1  UNL1       -0.1686
     28 C         145.6327  141.2455  156.5357 C.3     1  UNL1        0.1560
     29 C         146.7810  142.1876  156.3266 C.3     1  UNL1        0.0276
     30 O         142.9723  144.3947  161.6107 O.3     1  UNL1       -0.4714
     31 C         143.8982  144.2414  162.7807 C.3     1  UNL1        0.2525
@<TRIPOS>BOND
     1    17    18    1
     2    18     8    1
     3     8     9   ar
     4     9    10   ar
     5    10    11   ar
     6    11    12   ar
     7    12     1    1
     8     1     2   ar
     9     2     3   ar
    10     3     4   ar
    11     4     5    1
    12     4     6   ar
    13     6    19    1
    14    19    20   ar
    15    20    21   ar
    16    21    22   ar
    17    22    25    1
    18    25    26    2
    19    25    27    2
    20    25    28    1
    21    28    29    1
    22    22    23   ar
    23    23    24   ar
    24    24    30    1
    25    30    31    1
    26     6     7   ar
    27    12    13   ar
    28    13    14   ar
    29    14    15   ar
    30    15    16   ar
    31    16     8   ar
    32    16    11   ar
    33     7     1   ar
    34    24    19   ar
@<TRIPOS>MOLECULE
*****
 31 34 0 0 0
SMALL
GASTEIGER

@<TRIPOS>ATOM
      1 C         140.3514  140.5888  160.5182 C.ar    1  UNL1        0.0033
      2 C         139.2593  141.4210  159.9143 C.ar    1  UNL1        0.0024
      3 C         138.2460  142.0852  160.7988 C.ar    1  UNL1        0.0296
      4 C         138.3249  141.9170  162.2872 C.ar    1  UNL1        0.1402
      5 F         137.3117  142.5811  163.1718 F       1  UNL1       -0.2042
      6 C         139.4170  141.0848  162.8912 C.ar    1  UNL1        0.0304
      7 C         140.4302  140.4207  162.0067 C.ar    1  UNL1        0.0024
      8 N         141.1944  137.4438  156.6998 N.ar    1  UNL1       -0.2931
      9 C         139.7267  137.5672  156.9839 C.ar    1  UNL1        0.1797
     10 N         139.5549  138.5184  158.1309 N.ar    1  UNL1       -0.2222
     11 C         140.9165  138.9828  158.5557 C.ar    1  UNL1        0.1203
     12 C         141.3646  139.9247  159.6337 C.ar    1  UNL1        0.0417
     13 C         142.8259  140.2025  159.8272 C.ar    1  UNL1        0.1238
     14 N         143.8391  139.5384  158.9427 N.ar    1  UNL1       -0.1449
     15 N         143.3910  138.5965  157.8647 N.ar    1  UNL1       -0.1285
     16 C         141.9297  138.3187  157.6712 C.ar    1  UNL1        0.1843
     17 C         141.7495  135.0992  155.7278 C.3     1  UNL1        0.0266
     18 C         141.8173  136.5946  155.6317 C.3     1  UNL1        0.1091
     19 C         139.4959  140.9167  164.3797 C.ar    1  UNL1        0.0362
     20 C         138.7929  139.7696  165.0431 C.ar    1  UNL1        0.0044
     21 C         138.8718  139.6015  166.5316 C.ar    1  UNL1        0.0185
     22 C         139.6536  140.5804  167.3566 C.ar    1  UNL1        0.1087
     23 C         140.3565  141.7274  166.6931 C.ar    1  UNL1        0.0552
     24 C         140.2776  141.8955  165.2046 C.ar    1  UNL1        0.1400
     25 S         139.7325  140.4123  168.8450 S.O2    1  UNL1        0.0088
     26 O         140.8577  141.4028  168.8973 O.2     1  UNL1       -0.1686
     27 O         138.6073  139.4218  168.7928 O.2     1  UNL1       -0.1686
     28 C         139.8113  140.2442  170.3335 C.3     1  UNL1        0.1560
     29 C         140.9710  140.8175  171.0926 C.3     1  UNL1        0.0276
     30 O         140.9806  143.0426  164.5411 O.3     1  UNL1       -0.4714
     31 C         140.2840  144.3622  164.3889 C.3     1  UNL1        0.2525
@<TRIPOS>BOND
     1    17    18    1
     2    18     8    1
     3     8     9   ar
     4     9    10   ar
     5    10    11   ar
     6    11    12   ar
     7    12     1    1
     8     1     2   ar
     9     2     3   ar
    10     3     4   ar
    11     4     5    1
    12     4     6   ar
    13     6    19    1
    14    19    20   ar
    15    20    21   ar
    16    21    22   ar
    17    22    25    1
    18    25    26    2
    19    25    27    2
    20    25    28    1
    21    28    29    1
    22    22    23   ar
    23    23    24   ar
    24    24    30    1
    25    30    31    1
    26     6     7   ar
    27    12    13   ar
    28    13    14   ar
    29    14    15   ar
    30    15    16   ar
    31    16     8   ar
    32    16    11   ar
    33     7     1   ar
    34    24    19   ar
@<TRIPOS>MOLECULE
*****
 31 34 0 0 0
SMALL
GASTEIGER

@<TRIPOS>ATOM
      1 C         140.8322  138.8976  164.4851 C.ar    1  UNL1        0.0033
      2 C         140.0159  137.6923  164.1232 C.ar    1  UNL1        0.0024
      3 C         139.2475  137.6660  162.8352 C.ar    1  UNL1        0.0296
      4 C         139.2955  138.8450  161.9091 C.ar    1  UNL1        0.1402
      5 F         138.5271  138.8187  160.6211 F       1  UNL1       -0.2042
      6 C         140.1118  140.0503  162.2710 C.ar    1  UNL1        0.0304
      7 C         140.8801  140.0766  163.5590 C.ar    1  UNL1        0.0024
      8 N         140.9433  140.3184  169.2967 N.ar    1  UNL1       -0.2931
      9 C         139.6595  140.7328  168.6408 C.ar    1  UNL1        0.1797
     10 N         139.7001  140.2758  167.2127 N.ar    1  UNL1       -0.2222
     11 C         141.0091  139.5790  166.9860 C.ar    1  UNL1        0.1203
     12 C         141.6005  138.9239  165.7732 C.ar    1  UNL1        0.0417
     13 C         142.9603  138.2952  165.8483 C.ar    1  UNL1        0.1238
     14 N         143.7286  138.3215  167.1363 N.ar    1  UNL1       -0.1449
     15 N         143.1371  138.9766  168.3492 N.ar    1  UNL1       -0.1285
     16 C         141.7773  139.6053  168.2740 C.ar    1  UNL1        0.1843
     17 C         141.9329  141.8872  171.1159 C.3     1  UNL1        0.0266
     18 C         141.3259  140.5725  170.7247 C.3     1  UNL1        0.1091
     19 C         140.1597  141.2293  161.3449 C.ar    1  UNL1        0.0362
     20 C         140.8969  141.1303  160.0423 C.ar    1  UNL1        0.0044
     21 C         140.9448  142.3093  159.1161 C.ar    1  UNL1        0.0185
     22 C         140.2556  143.5873  159.4927 C.ar    1  UNL1        0.1087
     23 C         139.5185  143.6863  160.7953 C.ar    1  UNL1        0.0552
     24 C         139.4705  142.5073  161.7214 C.ar    1  UNL1        0.1400
     25 S         140.3036  144.7663  158.5666 S.O2    1  UNL1        0.0088
     26 O         139.9031  145.6693  159.6954 O.2     1  UNL1       -0.1686
     27 O         140.7040  143.8633  157.4378 O.2     1  UNL1       -0.1686
     28 C         140.3515  145.9453  157.6405 C.3     1  UNL1        0.1560
     29 C         141.3461  145.9774  156.5181 C.3     1  UNL1        0.0276
     30 O         138.7334  142.6063  163.0241 O.3     1  UNL1       -0.4714
     31 C         137.3492  142.0417  163.1473 C.3     1  UNL1        0.2525
@<TRIPOS>BOND
     1    17    18    1
     2    18     8    1
     3     8     9   ar
     4     9    10   ar
     5    10    11   ar
     6    11    12   ar
     7    12     1    1
     8     1     2   ar
     9     2     3   ar
    10     3     4   ar
    11     4     5    1
    12     4     6   ar
    13     6    19    1
    14    19    20   ar
    15    20    21   ar
    16    21    22   ar
    17    22    25    1
    18    25    26    2
    19    25    27    2
    20    25    28    1
    21    28    29    1
    22    22    23   ar
    23    23    24   ar
    24    24    30    1
    25    30    31    1
    26     6     7   ar
    27    12    13   ar
    28    13    14   ar
    29    14    15   ar
    30    15    16   ar
    31    16     8   ar
    32    16    11   ar
    33     7     1   ar
    34    24    19   ar
@<TRIPOS>MOLECULE
*****
 31 34 0 0 0
SMALL
GASTEIGER

@<TRIPOS>ATOM
      1 C         140.3748  140.9410  160.6235 C.ar    1  UNL1        0.0033
      2 C         139.2821  141.8118  160.0780 C.ar    1  UNL1        0.0024
      3 C         138.3002  142.4563  161.0112 C.ar    1  UNL1        0.0296
      4 C         138.4112  142.2300  162.4898 C.ar    1  UNL1        0.1402
      5 F         137.4294  142.8744  163.4230 F       1  UNL1       -0.2042
      6 C         139.5040  141.3591  163.0353 C.ar    1  UNL1        0.0304
      7 C         140.4857  140.7146  162.1022 C.ar    1  UNL1        0.0024
      8 N         144.4306  141.5111  157.7239 N.ar    1  UNL1       -0.2931
      9 C         144.0561  142.8026  158.3887 C.ar    1  UNL1        0.1797
     10 N         142.8420  142.5539  159.2337 N.ar    1  UNL1       -0.2222
     11 C         142.4661  141.1088  159.0911 C.ar    1  UNL1        0.1203
     12 C         141.3566  140.2964  159.6904 C.ar    1  UNL1        0.0417
     13 C         141.2289  138.8397  159.3566 C.ar    1  UNL1        0.1238
     14 N         142.2107  138.1952  158.4235 N.ar    1  UNL1       -0.1449
     15 N         143.3202  139.0076  157.8242 N.ar    1  UNL1       -0.1285
     16 C         143.4479  140.4643  158.1580 C.ar    1  UNL1        0.1843
     17 C         146.6184  142.3775  156.6226 C.3     1  UNL1        0.0266
     18 C         145.5850  141.3030  156.7891 C.3     1  UNL1        0.1091
     19 C         139.6149  141.1327  164.5140 C.ar    1  UNL1        0.0362
     20 C         140.3047  142.1464  165.3782 C.ar    1  UNL1        0.0044
     21 C         140.4156  141.9200  166.8569 C.ar    1  UNL1        0.0185
     22 C         139.8368  140.6800  167.4713 C.ar    1  UNL1        0.1087
     23 C         139.1471  139.6665  166.6071 C.ar    1  UNL1        0.0552
     24 C         139.0361  139.8928  165.1284 C.ar    1  UNL1        0.1400
     25 S         139.9478  140.4537  168.9500 S.O2    1  UNL1        0.0088
     26 O         141.2037  141.2732  168.9812 O.2     1  UNL1       -0.1686
     27 O         138.6918  139.6342  168.9188 O.2     1  UNL1       -0.1686
     28 C         140.0587  140.2273  170.4287 C.3     1  UNL1        0.1560
     29 C         140.9372  141.1150  171.2594 C.3     1  UNL1        0.0276
     30 O         138.3464  138.8792  164.2642 O.3     1  UNL1       -0.4714
     31 C         139.0965  137.6759  163.7751 C.3     1  UNL1        0.2525
@<TRIPOS>BOND
     1    17    18    1
     2    18     8    1
     3     8     9   ar
     4     9    10   ar
     5    10    11   ar
     6    11    12   ar
     7    12     1    1
     8     1     2   ar
     9     2     3   ar
    10     3     4   ar
    11     4     5    1
    12     4     6   ar
    13     6    19    1
    14    19    20   ar
    15    20    21   ar
    16    21    22   ar
    17    22    25    1
    18    25    26    2
    19    25    27    2
    20    25    28    1
    21    28    29    1
    22    22    23   ar
    23    23    24   ar
    24    24    30    1
    25    30    31    1
    26     6     7   ar
    27    12    13   ar
    28    13    14   ar
    29    14    15   ar
    30    15    16   ar
    31    16     8   ar
    32    16    11   ar
    33     7     1   ar
    34    24    19   ar
