@<TRIPOS>MOLECULE
*****
 35 39 0 0 0
SMALL
GASTEIGER

@<TRIPOS>ATOM
      1 C         141.7827  140.0328  157.7296 C.2     1  UNL1        0.1283
      2 N         140.7169  140.9684  157.2412 N.2     1  UNL1       -0.0375
      3 N         139.8260  141.3019  158.4010 N.2     1  UNL1        0.0826
      4 C         140.3413  140.5725  159.6061 C.2     1  UNL1        0.3991
      5 N         139.8655  140.5211  161.0278 N.2     1  UNL1        0.0275
      6 C         140.5992  139.6853  162.0344 C.2     1  UNL1        0.4243
      7 N         141.8085  138.9010  161.6194 N.am    1  UNL1       -0.1358
      8 C         142.5421  138.0652  162.6261 C.3     1  UNL1        0.2167
      9 C         142.2843  138.9523  160.1978 C.2     1  UNL1        0.3055
     10 O         143.4936  138.1680  159.7828 O.2     1  UNL1       -0.2554
     11 C         141.5506  139.7881  159.1911 C.3     1  UNL1        0.2504
     12 N         140.1234  139.6339  163.4561 N.pl3   1  UNL1       -0.1900
     13 C         140.7764  140.4941  164.4970 C.3     1  UNL1        0.1682
     14 C         140.3007  140.4427  165.9186 C.3     1  UNL1        0.0444
     15 C         139.1719  139.5311  166.2993 C.3     1  UNL1        0.0490
     16 C         138.5189  138.6709  165.2583 C.3     1  UNL1        0.0444
     17 C         138.9946  138.7223  163.8367 C.3     1  UNL1        0.1682
     18 C         138.0600  138.6733  166.8264 C.3     1  UNL1        0.1435
     19 O         137.9254  138.9405  168.2964 O.3     1  UNL1       -0.3548
     20 C         138.9542  139.9634  168.6776 C.3     1  UNL1        0.1294
     21 C         139.1740  140.5231  170.0518 C.3     1  UNL1        0.0335
     22 C         139.7246  140.3284  167.4434 C.3     1  UNL1        0.0808
     23 N         140.8499  141.3171  167.3666 N.3     1  UNL1       -0.3202
     24 H         141.1913  141.3699  166.4069 H       1  UNL1        0.1189
     25 H         141.6074  141.0185  167.9809 H       1  UNL1        0.1189
     26 C         143.8441  137.4812  155.4956 C.ar    1  UNL1        0.1392
     27 N         145.0953  138.2699  155.2457 N.ar    1  UNL1       -0.2285
     28 C         145.2423  139.6462  155.8238 C.ar    1  UNL1        0.1004
     29 C         144.1381  140.2338  156.6517 C.ar    1  UNL1        0.0229
     30 C         142.8869  139.4451  156.9016 C.ar    1  UNL1        0.0333
     31 C         142.7399  138.0688  156.3236 C.ar    1  UNL1        0.0902
     32 CL        141.4887  137.2801  156.5735 Cl      1  UNL1       -0.0793
     33 C         143.9344  134.9003  155.7793 C.3     1  UNL1        0.1097
     34 N         143.6971  136.1049  154.9176 N.pl3   1  UNL1       -0.3160
     35 H         143.4447  135.9922  153.9727 H       1  UNL1        0.1483
@<TRIPOS>BOND
     1    33    34    1
     2    34    26    1
     3    26    27   ar
     4    27    28   ar
     5    28    29   ar
     6    29    30   ar
     7    30     1    1
     8     1     2    2
     9     2     3    1
    10     3     4    2
    11     4     5    1
    12     5     6    2
    13     6    12    1
    14    12    13    1
    15    13    14    1
    16    14    15    1
    17    15    16    1
    18    16    17    1
    19    15    18    1
    20    18    19    1
    21    19    20    1
    22    20    21    1
    23    20    22    1
    24    22    23    1
    25     6     7    1
    26     7     8    1
    27     7     9   am
    28     9    10    2
    29     9    11    1
    30    30    31   ar
    31    31    32    1
    32    31    26   ar
    33    11     1    1
    34    11     4    1
    35    17    12    1
    36    22    15    1
    37    34    35    1
    38    23    24    1
    39    23    25    1
@<TRIPOS>MOLECULE
*****
 35 39 0 0 0
SMALL
GASTEIGER

@<TRIPOS>ATOM
      1 C         139.3659  141.6521  164.0828 C.2     1  UNL1        0.1283
      2 N         138.4855  142.7527  163.5693 N.2     1  UNL1       -0.0375
      3 N         139.0044  143.1727  162.2260 N.2     1  UNL1        0.0826
      4 C         140.2054  142.3318  161.9094 C.2     1  UNL1        0.3991
      5 N         141.1245  142.3003  160.7243 N.2     1  UNL1        0.0275
      6 C         142.2670  141.3291  160.6868 C.2     1  UNL1        0.4243
      7 N         142.4904  140.3893  161.8344 N.am    1  UNL1       -0.1358
      8 C         143.6329  139.4180  161.7969 C.3     1  UNL1        0.2167
      9 C         141.5714  140.4207  163.0194 C.2     1  UNL1        0.3055
     10 O         141.7948  139.4809  164.1670 O.2     1  UNL1       -0.2554
     11 C         140.4288  141.3920  163.0569 C.3     1  UNL1        0.2504
     12 N         143.1861  141.2976  159.5018 N.pl3   1  UNL1       -0.1900
     13 C         144.3139  142.2814  159.4010 C.3     1  UNL1        0.1682
     14 C         145.2329  142.2499  158.2160 C.3     1  UNL1        0.0444
     15 C         145.0242  141.2346  157.1317 C.3     1  UNL1        0.0490
     16 C         143.8964  140.2509  157.2325 C.3     1  UNL1        0.0444
     17 C         142.9773  140.2823  158.4175 C.3     1  UNL1        0.1682
     18 C         144.9401  140.2824  155.9758 C.3     1  UNL1        0.1435
     19 O         146.0527  140.6091  155.0242 O.3     1  UNL1       -0.3548
     20 C         146.8244  141.7633  155.5920 C.3     1  UNL1        0.1294
     21 C         148.0214  142.4162  154.9671 C.3     1  UNL1        0.0335
     22 C         146.1888  142.1499  156.8945 C.3     1  UNL1        0.0808
     23 N         146.6386  143.2572  157.8008 N.3     1  UNL1       -0.3202
     24 H         146.0273  143.2988  158.6162 H       1  UNL1        0.1189
     25 H         146.5976  144.1447  157.2995 H       1  UNL1        0.1189
     26 C         139.8204  140.6868  167.9054 C.ar    1  UNL1        0.1392
     27 N         138.8997  139.5073  168.0113 N.ar    1  UNL1       -0.2285
     28 C         138.1345  139.0428  166.8077 C.ar    1  UNL1        0.1004
     29 C         138.2899  139.7577  165.4982 C.ar    1  UNL1        0.0229
     30 C         139.2106  140.9372  165.3923 C.ar    1  UNL1        0.0333
     31 C         139.9758  141.4017  166.5959 C.ar    1  UNL1        0.0902
     32 CL        140.8965  142.5812  166.4900 Cl      1  UNL1       -0.0793
     33 C         139.9754  142.1515  170.0456 C.3     1  UNL1        0.1097
     34 N         140.5856  141.1514  169.1089 N.pl3   1  UNL1       -0.3160
     35 H         141.4884  140.7998  169.2840 H       1  UNL1        0.1483
@<TRIPOS>BOND
     1    33    34    1
     2    34    26    1
     3    26    27   ar
     4    27    28   ar
     5    28    29   ar
     6    29    30   ar
     7    30     1    1
     8     1     2    2
     9     2     3    1
    10     3     4    2
    11     4     5    1
    12     5     6    2
    13     6    12    1
    14    12    13    1
    15    13    14    1
    16    14    15    1
    17    15    16    1
    18    16    17    1
    19    15    18    1
    20    18    19    1
    21    19    20    1
    22    20    21    1
    23    20    22    1
    24    22    23    1
    25     6     7    1
    26     7     8    1
    27     7     9   am
    28     9    10    2
    29     9    11    1
    30    30    31   ar
    31    31    32    1
    32    31    26   ar
    33    11     1    1
    34    11     4    1
    35    17    12    1
    36    22    15    1
    37    34    35    1
    38    23    24    1
    39    23    25    1
@<TRIPOS>MOLECULE
*****
 35 39 0 0 0
SMALL
GASTEIGER

@<TRIPOS>ATOM
      1 C         140.5275  138.6449  157.9819 C.2     1  UNL1        0.1283
      2 N         139.2447  139.2658  157.5142 N.2     1  UNL1       -0.0375
      3 N         138.4836  139.7237  158.7229 N.2     1  UNL1        0.0826
      4 C         139.2961  139.3859  159.9376 C.2     1  UNL1        0.3991
      5 N         139.0489  139.5992  161.4017 N.2     1  UNL1        0.0275
      6 C         140.0649  139.1458  162.4077 C.2     1  UNL1        0.4243
      7 N         141.3281  138.4790  161.9498 N.am    1  UNL1       -0.1358
      8 C         142.3441  138.0256  162.9559 C.3     1  UNL1        0.2167
      9 C         141.5753  138.2657  160.4858 C.2     1  UNL1        0.3055
     10 O         142.8385  137.5989  160.0278 O.2     1  UNL1       -0.2554
     11 C         140.5593  138.7191  159.4797 C.3     1  UNL1        0.2504
     12 N         139.8177  139.3591  163.8718 N.pl3   1  UNL1       -0.1900
     13 C         140.6526  140.3419  164.6380 C.3     1  UNL1        0.1682
     14 C         140.4054  140.5552  166.1020 C.3     1  UNL1        0.0444
     15 C         139.3233  139.7857  166.7998 C.3     1  UNL1        0.0490
     16 C         138.4884  138.8030  166.0336 C.3     1  UNL1        0.0444
     17 C         138.7356  138.5897  164.5696 C.3     1  UNL1        0.1682
     18 C         138.2826  139.0927  167.6284 C.3     1  UNL1        0.1435
     19 O         138.3895  139.6082  169.0331 O.3     1  UNL1       -0.3548
     20 C         139.4963  140.6199  169.0725 C.3     1  UNL1        0.1294
     21 C         139.9469  141.3870  170.2801 C.3     1  UNL1        0.0335
     22 C         140.0734  140.7296  167.6924 C.3     1  UNL1        0.0808
     23 N         141.2024  141.6258  167.2774 N.3     1  UNL1       -0.3202
     24 H         141.3897  141.4984  166.2829 H       1  UNL1        0.1189
     25 H         142.0377  141.3908  167.8136 H       1  UNL1        0.1189
     26 C         143.8924  138.2509  155.9149 C.ar    1  UNL1        0.1392
     27 N         143.7200  136.8708  155.3530 N.ar    1  UNL1       -0.2285
     28 C         142.4834  136.0822  155.6674 C.ar    1  UNL1        0.1004
     29 C         141.4193  136.6735  156.5437 C.ar    1  UNL1        0.0229
     30 C         141.5917  138.0536  157.1056 C.ar    1  UNL1        0.0333
     31 C         142.8283  138.8422  156.7912 C.ar    1  UNL1        0.0902
     32 CL        143.0007  140.2223  157.3531 Cl      1  UNL1       -0.0793
     33 C         145.1738  139.9087  154.3787 C.3     1  UNL1        0.1097
     34 N         145.1289  139.0396  155.6005 N.pl3   1  UNL1       -0.3160
     35 H         145.9111  138.9869  156.1960 H       1  UNL1        0.1483
@<TRIPOS>BOND
     1    33    34    1
     2    34    26    1
     3    26    27   ar
     4    27    28   ar
     5    28    29   ar
     6    29    30   ar
     7    30     1    1
     8     1     2    2
     9     2     3    1
    10     3     4    2
    11     4     5    1
    12     5     6    2
    13     6    12    1
    14    12    13    1
    15    13    14    1
    16    14    15    1
    17    15    16    1
    18    16    17    1
    19    15    18    1
    20    18    19    1
    21    19    20    1
    22    20    21    1
    23    20    22    1
    24    22    23    1
    25     6     7    1
    26     7     8    1
    27     7     9   am
    28     9    10    2
    29     9    11    1
    30    30    31   ar
    31    31    32    1
    32    31    26   ar
    33    11     1    1
    34    11     4    1
    35    17    12    1
    36    22    15    1
    37    34    35    1
    38    23    24    1
    39    23    25    1
@<TRIPOS>MOLECULE
*****
 35 39 0 0 0
SMALL
GASTEIGER

@<TRIPOS>ATOM
      1 C         141.9924  140.5441  157.7139 C.2     1  UNL1        0.1283
      2 N         140.8722  141.4149  157.2274 N.2     1  UNL1       -0.0375
      3 N         139.9379  141.6533  158.3765 N.2     1  UNL1        0.0826
      4 C         140.4808  140.9299  159.5730 C.2     1  UNL1        0.3991
      5 N         139.9830  140.8067  160.9826 N.2     1  UNL1        0.0275
      6 C         140.7549  139.9981  161.9827 C.2     1  UNL1        0.4243
      7 N         142.0247  139.3125  161.5732 N.am    1  UNL1       -0.1358
      8 C         142.7966  138.5039  162.5733 C.3     1  UNL1        0.2167
      9 C         142.5225  139.4357  160.1636 C.2     1  UNL1        0.3055
     10 O         143.7923  138.7501  159.7541 O.2     1  UNL1       -0.2554
     11 C         141.7506  140.2443  159.1635 C.3     1  UNL1        0.2504
     12 N         140.2571  139.8749  163.3924 N.pl3   1  UNL1       -0.1900
     13 C         140.8876  140.6875  164.4841 C.3     1  UNL1        0.1682
     14 C         140.3898  140.5643  165.8937 C.3     1  UNL1        0.0444
     15 C         139.2614  139.6285  166.2115 C.3     1  UNL1        0.0490
     16 C         138.6308  138.8159  165.1197 C.3     1  UNL1        0.0444
     17 C         139.1287  138.9391  163.7102 C.3     1  UNL1        0.1682
     18 C         138.1472  138.7394  166.6785 C.3     1  UNL1        0.1435
     19 O         137.9875  138.9342  168.1573 O.3     1  UNL1       -0.3548
     20 C         139.0031  139.9437  168.6042 C.3     1  UNL1        0.1294
     21 C         139.1972  140.4374  170.0071 C.3     1  UNL1        0.0335
     22 C         139.7904  140.3728  167.4016 C.3     1  UNL1        0.0808
     23 N         140.9100  141.3709  167.3910 N.3     1  UNL1       -0.3202
     24 H         141.2661  141.4722  166.4406 H       1  UNL1        0.1189
     25 H         141.6597  141.0474  168.0023 H       1  UNL1        0.1189
     26 C         145.5792  140.3703  156.0240 C.ar    1  UNL1        0.1392
     27 N         145.4685  139.0869  155.2554 N.ar    1  UNL1       -0.2285
     28 C         144.1992  138.2893  155.3063 C.ar    1  UNL1        0.1004
     29 C         143.0405  138.7751  156.1258 C.ar    1  UNL1        0.0229
     30 C         143.1512  140.0584  156.8944 C.ar    1  UNL1        0.0333
     31 C         144.4205  140.8560  156.8435 C.ar    1  UNL1        0.0902
     32 CL        144.5312  142.1394  157.6120 Cl      1  UNL1       -0.0793
     33 C         146.9734  142.3187  155.0191 C.3     1  UNL1        0.1097
     34 N         146.8485  141.1679  155.9731 N.pl3   1  UNL1       -0.3160
     35 H         147.5996  140.9361  156.5659 H       1  UNL1        0.1483
@<TRIPOS>BOND
     1    33    34    1
     2    34    26    1
     3    26    27   ar
     4    27    28   ar
     5    28    29   ar
     6    29    30   ar
     7    30     1    1
     8     1     2    2
     9     2     3    1
    10     3     4    2
    11     4     5    1
    12     5     6    2
    13     6    12    1
    14    12    13    1
    15    13    14    1
    16    14    15    1
    17    15    16    1
    18    16    17    1
    19    15    18    1
    20    18    19    1
    21    19    20    1
    22    20    21    1
    23    20    22    1
    24    22    23    1
    25     6     7    1
    26     7     8    1
    27     7     9   am
    28     9    10    2
    29     9    11    1
    30    30    31   ar
    31    31    32    1
    32    31    26   ar
    33    11     1    1
    34    11     4    1
    35    17    12    1
    36    22    15    1
    37    34    35    1
    38    23    24    1
    39    23    25    1
@<TRIPOS>MOLECULE
*****
 35 39 0 0 0
SMALL
GASTEIGER

@<TRIPOS>ATOM
      1 C         143.2025  142.2904  156.8360 C.2     1  UNL1        0.1283
      2 N         144.6158  142.4002  156.3458 N.2     1  UNL1       -0.0375
      3 N         145.1000  141.0197  156.0145 N.2     1  UNL1        0.0826
      4 C         143.9859  140.0568  156.3000 C.2     1  UNL1        0.3991
      5 N         143.8877  138.5662  156.1632 N.2     1  UNL1        0.0275
      6 C         142.6168  137.8611  156.5342 C.2     1  UNL1        0.4243
      7 N         141.4441  138.6465  157.0419 N.am    1  UNL1       -0.1358
      8 C         140.1732  137.9414  157.4129 C.3     1  UNL1        0.2167
      9 C         141.5422  140.1370  157.1787 C.2     1  UNL1        0.3055
     10 O         140.3695  140.9224  157.6864 O.2     1  UNL1       -0.2554
     11 C         142.8132  140.8422  156.8077 C.3     1  UNL1        0.2504
     12 N         142.5187  136.3706  156.3975 N.pl3   1  UNL1       -0.1900
     13 C         143.3614  135.4809  157.2625 C.3     1  UNL1        0.1682
     14 C         143.2632  133.9904  157.1257 C.3     1  UNL1        0.0444
     15 C         142.3222  133.3896  156.1239 C.3     1  UNL1        0.0490
     16 C         141.4795  134.2792  155.2589 C.3     1  UNL1        0.0444
     17 C         141.5777  135.7697  155.3957 C.3     1  UNL1        0.1682
     18 C         141.4314  132.6484  155.1715 C.3     1  UNL1        0.1435
     19 O         141.6562  131.1792  155.3745 O.3     1  UNL1       -0.3548
     20 C         142.6861  131.0125  156.4524 C.3     1  UNL1        0.1294
     21 C         143.2119  129.7087  156.9752 C.3     1  UNL1        0.0335
     22 C         143.0977  132.3785  156.9155 C.3     1  UNL1        0.0808
     23 N         144.1074  132.6806  157.9828 N.3     1  UNL1       -0.3202
     24 H         144.1921  133.6909  158.0945 H       1  UNL1        0.1189
     25 H         145.0114  132.2911  157.7156 H       1  UNL1        0.1189
     26 C         141.4932  145.0283  159.1453 C.ar    1  UNL1        0.1392
     27 N         140.5892  145.7067  158.1591 N.ar    1  UNL1       -0.2285
     28 C         140.5564  145.2463  156.7319 C.ar    1  UNL1        0.1004
     29 C         141.4274  144.1076  156.2909 C.ar    1  UNL1        0.0229
     30 C         142.3314  143.4292  157.2771 C.ar    1  UNL1        0.0333
     31 C         142.3643  143.8896  158.7043 C.ar    1  UNL1        0.0902
     32 CL        143.2682  143.2112  159.6906 Cl      1  UNL1       -0.0793
     33 C         140.2733  145.4654  161.3972 C.3     1  UNL1        0.1097
     34 N         141.5261  145.4886  160.5725 N.pl3   1  UNL1       -0.3160
     35 H         142.3700  145.8059  160.9681 H       1  UNL1        0.1483
@<TRIPOS>BOND
     1    33    34    1
     2    34    26    1
     3    26    27   ar
     4    27    28   ar
     5    28    29   ar
     6    29    30   ar
     7    30     1    1
     8     1     2    2
     9     2     3    1
    10     3     4    2
    11     4     5    1
    12     5     6    2
    13     6    12    1
    14    12    13    1
    15    13    14    1
    16    14    15    1
    17    15    16    1
    18    16    17    1
    19    15    18    1
    20    18    19    1
    21    19    20    1
    22    20    21    1
    23    20    22    1
    24    22    23    1
    25     6     7    1
    26     7     8    1
    27     7     9   am
    28     9    10    2
    29     9    11    1
    30    30    31   ar
    31    31    32    1
    32    31    26   ar
    33    11     1    1
    34    11     4    1
    35    17    12    1
    36    22    15    1
    37    34    35    1
    38    23    24    1
    39    23    25    1
@<TRIPOS>MOLECULE
*****
 35 39 0 0 0
SMALL
GASTEIGER

@<TRIPOS>ATOM
      1 C         138.8032  140.4857  158.2966 C.2     1  UNL1        0.1283
      2 N         139.1798  139.0778  157.9416 N.2     1  UNL1       -0.0375
      3 N         139.5878  138.3753  159.2026 N.2     1  UNL1        0.0826
      4 C         139.4632  139.3489  160.3367 C.2     1  UNL1        0.3991
      5 N         139.7288  139.2163  161.8071 N.2     1  UNL1        0.0275
      6 C         139.5093  140.3881  162.7175 C.2     1  UNL1        0.4243
      7 N         139.0244  141.6924  162.1575 N.am    1  UNL1       -0.1358
      8 C         138.8050  142.8642  163.0680 C.3     1  UNL1        0.2167
      9 C         138.7589  141.8250  160.6872 C.2     1  UNL1        0.3055
     10 O         138.2740  143.1293  160.1273 O.2     1  UNL1       -0.2554
     11 C         138.9783  140.6532  159.7768 C.3     1  UNL1        0.2504
     12 N         139.7748  140.2555  164.1879 N.pl3   1  UNL1       -0.1900
     13 C         141.1843  140.2776  164.7005 C.3     1  UNL1        0.1682
     14 C         141.4498  140.1451  166.1708 C.3     1  UNL1        0.0444
     15 C         140.3057  139.9904  167.1285 C.3     1  UNL1        0.0490
     16 C         138.8962  139.9683  166.6159 C.3     1  UNL1        0.0444
     17 C         138.6308  140.1009  165.1456 C.3     1  UNL1        0.1682
     18 C         139.2690  139.8300  168.2007 C.3     1  UNL1        0.1435
     19 O         139.9771  139.7354  169.5198 O.3     1  UNL1       -0.3548
     20 C         141.4515  139.8375  169.2628 C.3     1  UNL1        0.1294
     21 C         142.5328  139.7902  170.3012 C.3     1  UNL1        0.0335
     22 C         141.6546  139.9951  167.7850 C.3     1  UNL1        0.0808
     23 N         142.9746  140.1331  167.0861 N.3     1  UNL1       -0.3202
     24 H         142.8198  140.2249  166.0822 H       1  UNL1        0.1189
     25 H         143.5437  139.3064  167.2682 H       1  UNL1        0.1189
     26 C         138.7845  143.7121  155.9856 C.ar    1  UNL1        0.1392
     27 N         137.3947  143.6508  155.4245 N.ar    1  UNL1       -0.2285
     28 C         136.4745  142.5345  155.8207 C.ar    1  UNL1        0.1004
     29 C         136.9440  141.4795  156.7780 C.ar    1  UNL1        0.0229
     30 C         138.3337  141.5408  157.3392 C.ar    1  UNL1        0.0333
     31 C         139.2540  142.6571  156.9430 C.ar    1  UNL1        0.0902
     32 CL        140.6437  142.7184  157.5041 Cl      1  UNL1       -0.0793
     33 C         139.6852  146.1218  156.3489 C.3     1  UNL1        0.1097
     34 N         139.7047  144.8284  155.5895 N.pl3   1  UNL1       -0.3160
     35 H         140.3215  144.7121  154.8310 H       1  UNL1        0.1483
@<TRIPOS>BOND
     1    33    34    1
     2    34    26    1
     3    26    27   ar
     4    27    28   ar
     5    28    29   ar
     6    29    30   ar
     7    30     1    1
     8     1     2    2
     9     2     3    1
    10     3     4    2
    11     4     5    1
    12     5     6    2
    13     6    12    1
    14    12    13    1
    15    13    14    1
    16    14    15    1
    17    15    16    1
    18    16    17    1
    19    15    18    1
    20    18    19    1
    21    19    20    1
    22    20    21    1
    23    20    22    1
    24    22    23    1
    25     6     7    1
    26     7     8    1
    27     7     9   am
    28     9    10    2
    29     9    11    1
    30    30    31   ar
    31    31    32    1
    32    31    26   ar
    33    11     1    1
    34    11     4    1
    35    17    12    1
    36    22    15    1
    37    34    35    1
    38    23    24    1
    39    23    25    1
@<TRIPOS>MOLECULE
*****
 35 39 0 0 0
SMALL
GASTEIGER

@<TRIPOS>ATOM
      1 C         142.8078  140.9879  165.7348 C.2     1  UNL1        0.1283
      2 N         143.8601  140.0408  165.2391 N.2     1  UNL1       -0.0375
      3 N         143.9373  140.1735  163.7470 N.2     1  UNL1        0.0826
      4 C         142.9328  141.2025  163.3205 C.2     1  UNL1        0.3991
      5 N         142.5635  141.7463  161.9722 N.2     1  UNL1        0.0275
      6 C         141.4961  142.7934  161.8524 C.2     1  UNL1        0.4243
      7 N         140.7981  143.2967  163.0810 N.am    1  UNL1       -0.1358
      8 C         139.7307  144.3439  162.9612 C.3     1  UNL1        0.2167
      9 C         141.1673  142.7530  164.4293 C.2     1  UNL1        0.3055
     10 O         140.4693  143.2564  165.6578 O.2     1  UNL1       -0.2554
     11 C         142.2347  141.7059  164.5491 C.3     1  UNL1        0.2504
     12 N         141.1268  143.3371  160.5041 N.pl3   1  UNL1       -0.1900
     13 C         141.9492  144.4278  159.8843 C.3     1  UNL1        0.1682
     14 C         141.5799  144.9715  158.5360 C.3     1  UNL1        0.0444
     15 C         140.3882  144.4246  157.8075 C.3     1  UNL1        0.0490
     16 C         139.5658  143.3340  158.4273 C.3     1  UNL1        0.0444
     17 C         139.9351  142.7902  159.7756 C.3     1  UNL1        0.1682
     18 C         139.2303  143.9793  156.9642 C.3     1  UNL1        0.1435
     19 O         139.2384  144.7886  155.7012 O.3     1  UNL1       -0.3548
     20 C         140.4013  145.7341  155.7640 C.3     1  UNL1        0.1294
     21 C         140.7860  146.7296  154.7101 C.3     1  UNL1        0.0335
     22 C         141.1119  145.5091  157.0657 C.3     1  UNL1        0.0808
     23 N         142.3319  146.2402  157.5420 N.3     1  UNL1       -0.3202
     24 H         142.6032  145.8870  158.4597 H       1  UNL1        0.1189
     25 H         142.1266  147.2371  157.6085 H       1  UNL1        0.1189
     26 C         140.8660  140.5718  169.1709 C.ar    1  UNL1        0.1392
     27 N         141.5853  141.5726  170.0259 N.ar    1  UNL1       -0.2285
     28 C         142.7120  142.3785  169.4506 C.ar    1  UNL1        0.1004
     29 C         143.1195  142.1836  168.0202 C.ar    1  UNL1        0.0229
     30 C         142.4002  141.1828  167.1652 C.ar    1  UNL1        0.0333
     31 C         141.2735  140.3769  167.7405 C.ar    1  UNL1        0.0902
     32 CL        140.5543  139.3761  166.8855 Cl      1  UNL1       -0.0793
     33 C         138.5225  140.4569  170.2865 C.3     1  UNL1        0.1097
     34 N         139.7393  139.7659  169.7462 N.pl3   1  UNL1       -0.3160
     35 H         139.7985  138.7835  169.7691 H       1  UNL1        0.1483
@<TRIPOS>BOND
     1    33    34    1
     2    34    26    1
     3    26    27   ar
     4    27    28   ar
     5    28    29   ar
     6    29    30   ar
     7    30     1    1
     8     1     2    2
     9     2     3    1
    10     3     4    2
    11     4     5    1
    12     5     6    2
    13     6    12    1
    14    12    13    1
    15    13    14    1
    16    14    15    1
    17    15    16    1
    18    16    17    1
    19    15    18    1
    20    18    19    1
    21    19    20    1
    22    20    21    1
    23    20    22    1
    24    22    23    1
    25     6     7    1
    26     7     8    1
    27     7     9   am
    28     9    10    2
    29     9    11    1
    30    30    31   ar
    31    31    32    1
    32    31    26   ar
    33    11     1    1
    34    11     4    1
    35    17    12    1
    36    22    15    1
    37    34    35    1
    38    23    24    1
    39    23    25    1
@<TRIPOS>MOLECULE
*****
 35 39 0 0 0
SMALL
GASTEIGER

@<TRIPOS>ATOM
      1 C         140.8023  140.0113  166.3365 C.2     1  UNL1        0.1283
      2 N         141.2149  138.6792  165.7840 N.2     1  UNL1       -0.0375
      3 N         141.3475  138.8155  164.2961 N.2     1  UNL1        0.0826
      4 C         141.0168  140.2318  163.9291 C.2     1  UNL1        0.3991
      5 N         140.9790  140.9440  162.6095 N.2     1  UNL1        0.0275
      6 C         140.6043  142.3952  162.5509 C.2     1  UNL1        0.4243
      7 N         140.2674  143.1343  163.8120 N.am    1  UNL1       -0.1358
      8 C         139.8926  144.5856  163.7534 C.3     1  UNL1        0.2167
      9 C         140.3052  142.4221  165.1316 C.2     1  UNL1        0.3055
     10 O         139.9682  143.1612  166.3926 O.2     1  UNL1       -0.2554
     11 C         140.6799  140.9708  165.1902 C.3     1  UNL1        0.2504
     12 N         140.5665  143.1075  161.2313 N.pl3   1  UNL1       -0.1900
     13 C         139.5990  142.6715  160.1712 C.3     1  UNL1        0.1682
     14 C         139.5612  143.3838  158.8517 C.3     1  UNL1        0.0444
     15 C         140.4910  144.5319  158.5922 C.3     1  UNL1        0.0490
     16 C         141.4585  144.9679  159.6523 C.3     1  UNL1        0.0444
     17 C         141.4962  144.2557  160.9719 C.3     1  UNL1        0.1682
     18 C         141.3549  145.6905  158.1906 C.3     1  UNL1        0.1435
     19 O         140.9805  146.0853  156.7926 O.3     1  UNL1       -0.3548
     20 C         139.8851  145.1707  156.3304 C.3     1  UNL1        0.1294
     21 C         139.2107  145.2093  154.9912 C.3     1  UNL1        0.0335
     22 C         139.5826  144.2107  157.4425 C.3     1  UNL1        0.0808
     23 N         138.5525  143.1208  157.4107 N.3     1  UNL1       -0.3202
     24 H         138.5591  142.6207  158.2996 H       1  UNL1        0.1189
     25 H         138.7676  142.4717  156.6538 H       1  UNL1        0.1189
     26 C         141.4025  141.2425  170.0614 C.ar    1  UNL1        0.1392
     27 N         140.0616  140.9618  170.6722 N.ar    1  UNL1       -0.2285
     28 C         138.9676  140.3644  169.8379 C.ar    1  UNL1        0.1004
     29 C         139.2145  140.0475  168.3926 C.ar    1  UNL1        0.0229
     30 C         140.5555  140.3282  167.7818 C.ar    1  UNL1        0.0333
     31 C         141.6494  140.9257  168.6161 C.ar    1  UNL1        0.0902
     32 CL        142.9904  141.2063  168.0053 Cl      1  UNL1       -0.0793
     33 C         142.8997  143.2703  170.6911 C.3     1  UNL1        0.1097
     34 N         142.4966  141.8400  170.8956 N.pl3   1  UNL1       -0.3160
     35 H         142.9500  141.2934  171.5774 H       1  UNL1        0.1483
@<TRIPOS>BOND
     1    33    34    1
     2    34    26    1
     3    26    27   ar
     4    27    28   ar
     5    28    29   ar
     6    29    30   ar
     7    30     1    1
     8     1     2    2
     9     2     3    1
    10     3     4    2
    11     4     5    1
    12     5     6    2
    13     6    12    1
    14    12    13    1
    15    13    14    1
    16    14    15    1
    17    15    16    1
    18    16    17    1
    19    15    18    1
    20    18    19    1
    21    19    20    1
    22    20    21    1
    23    20    22    1
    24    22    23    1
    25     6     7    1
    26     7     8    1
    27     7     9   am
    28     9    10    2
    29     9    11    1
    30    30    31   ar
    31    31    32    1
    32    31    26   ar
    33    11     1    1
    34    11     4    1
    35    17    12    1
    36    22    15    1
    37    34    35    1
    38    23    24    1
    39    23    25    1
@<TRIPOS>MOLECULE
*****
 35 39 0 0 0
SMALL
GASTEIGER

@<TRIPOS>ATOM
      1 C         142.9776  142.6438  164.9266 C.2     1  UNL1        0.1283
      2 N         143.9815  143.6973  165.2904 N.2     1  UNL1       -0.0375
      3 N         144.1089  144.6371  164.1283 N.2     1  UNL1        0.0826
      4 C         143.1838  144.1645  163.0464 C.2     1  UNL1        0.3991
      5 N         142.8877  144.6967  161.6755 N.2     1  UNL1        0.0275
      6 C         141.8924  143.9970  160.7982 C.2     1  UNL1        0.4243
      7 N         141.1932  142.7651  161.2916 N.am    1  UNL1       -0.1358
      8 C         140.1979  142.0654  160.4141 C.3     1  UNL1        0.2167
      9 C         141.4893  142.2328  162.6623 C.2     1  UNL1        0.3055
     10 O         140.7901  141.0009  163.1557 O.2     1  UNL1       -0.2554
     11 C         142.4846  142.9325  163.5398 C.3     1  UNL1        0.2504
     12 N         141.5963  144.5293  159.4274 N.pl3   1  UNL1       -0.1900
     13 C         142.4974  144.1855  158.2786 C.3     1  UNL1        0.1682
     14 C         142.2012  144.7178  156.9078 C.3     1  UNL1        0.0444
     15 C         141.0040  145.5937  156.6859 C.3     1  UNL1        0.0490
     16 C         140.1029  145.9375  157.8347 C.3     1  UNL1        0.0444
     17 C         140.3990  145.4052  159.2054 C.3     1  UNL1        0.1682
     18 C         139.8498  146.4763  156.3131 C.3     1  UNL1        0.1435
     19 O         139.9425  146.7649  154.8440 O.3     1  UNL1       -0.3548
     20 C         141.1540  146.0607  154.3088 C.3     1  UNL1        0.1294
     21 C         141.6265  146.0773  152.8854 C.3     1  UNL1        0.0335
     22 C         141.8100  145.3369  155.4471 C.3     1  UNL1        0.0808
     23 N         143.0537  144.5027  155.3618 N.3     1  UNL1       -0.3202
     24 H         143.2761  144.1286  156.2843 H       1  UNL1        0.1189
     25 H         143.8281  145.0795  155.0331 H       1  UNL1        0.1189
     26 C         140.8780  140.4895  167.5153 C.ar    1  UNL1        0.1392
     27 N         141.6741  139.2184  167.5378 N.ar    1  UNL1       -0.2285
     28 C         142.9047  139.0891  166.6899 C.ar    1  UNL1        0.1004
     29 C         143.3391  140.2309  165.8195 C.ar    1  UNL1        0.0229
     30 C         142.5430  141.5020  165.7970 C.ar    1  UNL1        0.0333
     31 C         141.3125  141.6313  166.6449 C.ar    1  UNL1        0.0902
     32 CL        140.5164  142.9024  166.6225 Cl      1  UNL1       -0.0793
     33 C         139.7516  141.1587  169.7588 C.3     1  UNL1        0.1097
     34 N         139.6474  140.6189  168.3631 N.pl3   1  UNL1       -0.3160
     35 H         138.7714  140.3495  168.0036 H       1  UNL1        0.1483
@<TRIPOS>BOND
     1    33    34    1
     2    34    26    1
     3    26    27   ar
     4    27    28   ar
     5    28    29   ar
     6    29    30   ar
     7    30     1    1
     8     1     2    2
     9     2     3    1
    10     3     4    2
    11     4     5    1
    12     5     6    2
    13     6    12    1
    14    12    13    1
    15    13    14    1
    16    14    15    1
    17    15    16    1
    18    16    17    1
    19    15    18    1
    20    18    19    1
    21    19    20    1
    22    20    21    1
    23    20    22    1
    24    22    23    1
    25     6     7    1
    26     7     8    1
    27     7     9   am
    28     9    10    2
    29     9    11    1
    30    30    31   ar
    31    31    32    1
    32    31    26   ar
    33    11     1    1
    34    11     4    1
    35    17    12    1
    36    22    15    1
    37    34    35    1
    38    23    24    1
    39    23    25    1
