@<TRIPOS>MOLECULE
*****
 40 46 0 0 0
SMALL
GASTEIGER

@<TRIPOS>ATOM
      1 C         139.9716  141.7729  161.1307 C.3     1  UNL1        0.1706
      2 N         140.7055  141.1594  159.9753 N.3     1  UNL1       -0.2797
      3 C         141.0271  139.6943  159.9839 C.3     1  UNL1        0.1167
      4 C         140.6147  138.8427  161.1478 C.3     1  UNL1        0.0511
      5 C         139.8808  139.4562  162.3032 C.2     1  UNL1       -0.0037
      6 C         139.5593  140.9213  162.2947 C.2     1  UNL1        0.0800
      7 N         138.8305  141.2433  163.5656 N.2     1  UNL1       -0.2519
      8 C         138.7016  139.9772  164.3596 C.2     1  UNL1        0.0627
      9 C         138.0771  139.6874  165.6922 C.3     1  UNL1        0.0717
     10 C         138.1017  138.2931  166.2446 C.2     1  UNL1       -0.0198
     11 C         138.7508  137.1886  165.4644 C.2     1  UNL1       -0.0042
     12 C         139.3753  137.4784  164.1318 C.2     1  UNL1        0.0006
     13 C         139.3508  138.8727  163.5794 C.2     1  UNL1        0.0111
     14 H         141.5932  141.6552  159.8936 H       1  UNL1        0.1246
     15 C         139.2999  142.8069  161.9850 C.ar    1  UNL1        0.2478
     16 N         138.0100  143.5058  161.6729 N.ar    1  UNL1       -0.1096
     17 N         137.7131  144.4543  162.7964 N.ar    1  UNL1       -0.1116
     18 C         138.8196  144.3416  163.8028 C.ar    1  UNL1        0.2267
     19 C         138.9266  145.1118  165.0855 C.3     1  UNL1        0.0967
     20 O         139.8003  143.3234  163.3013 O.2     1  UNL1       -0.4213
     21 C         141.7610  139.0807  158.8284 C.ar    1  UNL1        0.1319
     22 N         141.6316  137.6635  158.3543 N.ar    1  UNL1       -0.2282
     23 C         142.5438  137.4835  157.1772 C.ar    1  UNL1        0.1171
     24 C         143.2369  138.7894  156.9239 C.ar    1  UNL1        0.0942
     25 N         142.7531  139.7766  157.9444 N.ar    1  UNL1       -0.3385
     26 H         143.0368  140.7162  158.0206 H       1  UNL1        0.1672
     27 C         142.7301  136.2194  156.3914 C.ar    1  UNL1        0.1006
     28 C         142.3928  136.1881  154.9301 C.ar    1  UNL1        0.0230
     29 C         142.5792  134.9242  154.1443 C.ar    1  UNL1        0.0328
     30 C         143.1028  133.6915  154.8197 C.ar    1  UNL1        0.1592
     31 F         143.2891  132.4274  154.0339 F       1  UNL1       -0.2025
     32 C         143.4401  133.7227  156.2809 C.ar    1  UNL1        0.1284
     33 N         143.2537  134.9867  157.0668 N.ar    1  UNL1       -0.2399
     34 N         140.0184  144.5212  158.3903 N.ar    1  UNL1       -0.2497
     35 C         139.5960  143.1685  158.8821 C.ar    1  UNL1        0.0944
     36 C         140.1507  142.9836  160.2635 C.ar    1  UNL1        0.0439
     37 C         140.9160  144.2219  160.6253 C.ar    1  UNL1        0.1194
     38 N         140.8342  145.1722  159.4675 N.ar    1  UNL1       -0.1679
     39 C         139.8778  146.5867  156.8206 C.3     1  UNL1        0.0284
     40 C         139.6838  145.1180  157.0554 C.3     1  UNL1        0.1276
@<TRIPOS>BOND
     1    39    40    1
     2    40    34    1
     3    34    35   ar
     4    35    36   ar
     5     1    36    1
     6     1    15    1
     7    15    16   ar
     8    16    17   ar
     9    17    18   ar
    10    18    19    1
    11    18    20   ar
    12     1     2    1
    13     2     3    1
    14     3    21    1
    15    21    22   ar
    16    22    23   ar
    17    23    27    1
    18    27    28   ar
    19    28    29   ar
    20    29    30   ar
    21    30    31    1
    22    30    32   ar
    23    32    33   ar
    24    23    24   ar
    25    24    25   ar
    26     3     4    1
    27     4     5    1
    28     5     6    2
    29     6     7    1
    30     7     8    2
    31     8     9    1
    32     9    10    1
    33    10    11    2
    34    11    12    1
    35    12    13    2
    36    36    37   ar
    37    37    38   ar
    38    38    34   ar
    39     6     1    1
    40    13     8    1
    41    20    15   ar
    42    25    21   ar
    43    13     5    1
    44    33    27   ar
    45     2    14    1
    46    25    26    1
@<TRIPOS>MOLECULE
*****
 40 46 0 0 0
SMALL
GASTEIGER

@<TRIPOS>ATOM
      1 C         142.4342  142.6373  160.1473 C.3     1  UNL1        0.1706
      2 N         141.9277  143.2756  158.8880 N.3     1  UNL1       -0.2797
      3 C         140.7665  144.2236  158.9422 C.3     1  UNL1        0.1167
      4 C         140.1118  144.5332  160.2558 C.3     1  UNL1        0.0511
      5 C         140.6183  143.8949  161.5151 C.2     1  UNL1       -0.0037
      6 C         141.7795  142.9470  161.4609 C.2     1  UNL1        0.0800
      7 N         142.0569  142.4736  162.8569 N.2     1  UNL1       -0.2519
      8 C         141.0672  143.1289  163.7740 C.2     1  UNL1        0.0627
      9 C         140.8607  143.0393  165.2569 C.3     1  UNL1        0.0717
     10 C         139.7651  143.8281  165.9106 C.2     1  UNL1       -0.0198
     11 C         138.8760  144.7065  165.0813 C.2     1  UNL1       -0.0042
     12 C         139.0824  144.7962  163.5984 C.2     1  UNL1        0.0006
     13 C         140.1780  144.0074  162.9447 C.2     1  UNL1        0.0111
     14 H         141.6597  142.5173  158.2607 H       1  UNL1        0.1246
     15 C         143.2688  141.7892  161.0607 C.ar    1  UNL1        0.2478
     16 N         144.6296  142.1361  161.5874 N.ar    1  UNL1       -0.1096
     17 N         145.0908  141.0065  162.4600 N.ar    1  UNL1       -0.1116
     18 C         144.0149  139.9614  162.4725 C.ar    1  UNL1        0.2267
     19 C         144.0576  138.6609  163.2188 C.3     1  UNL1        0.0967
     20 O         142.8888  140.4452  161.6077 O.2     1  UNL1       -0.4213
     21 C         140.2599  144.8619  157.6828 C.ar    1  UNL1        0.1319
     22 N         140.3611  146.3161  157.3291 N.ar    1  UNL1       -0.2282
     23 C         139.7270  146.5111  155.9838 C.ar    1  UNL1        0.1171
     24 C         139.2339  145.1774  155.5061 C.ar    1  UNL1        0.0942
     25 N         139.5633  144.1582  156.5561 N.ar    1  UNL1       -0.3385
     26 H         139.3582  143.1962  156.5133 H       1  UNL1        0.1672
     27 C         139.6070  147.8115  155.2457 C.ar    1  UNL1        0.1006
     28 C         140.1719  147.9437  153.8625 C.ar    1  UNL1        0.0230
     29 C         140.0520  149.2440  153.1244 C.ar    1  UNL1        0.0328
     30 C         139.3672  150.4121  153.7697 C.ar    1  UNL1        0.1592
     31 F         139.2472  151.7125  153.0317 F       1  UNL1       -0.2025
     32 C         138.8023  150.2800  155.1530 C.ar    1  UNL1        0.1284
     33 N         138.9222  148.9796  155.8910 N.ar    1  UNL1       -0.2399
     34 N         145.1522  141.7737  157.5144 N.ar    1  UNL1       -0.2497
     35 C         144.4516  142.7628  158.3982 C.ar    1  UNL1        0.0944
     36 C         143.3788  142.0331  159.1510 C.ar    1  UNL1        0.0439
     37 C         143.4163  140.5932  158.7325 C.ar    1  UNL1        0.1194
     38 N         144.5124  140.4328  157.7210 N.ar    1  UNL1       -0.1679
     39 C         147.4825  142.8389  157.0842 C.3     1  UNL1        0.0284
     40 C         146.2925  142.0730  156.5869 C.3     1  UNL1        0.1276
@<TRIPOS>BOND
     1    39    40    1
     2    40    34    1
     3    34    35   ar
     4    35    36   ar
     5     1    36    1
     6     1    15    1
     7    15    16   ar
     8    16    17   ar
     9    17    18   ar
    10    18    19    1
    11    18    20   ar
    12     1     2    1
    13     2     3    1
    14     3    21    1
    15    21    22   ar
    16    22    23   ar
    17    23    27    1
    18    27    28   ar
    19    28    29   ar
    20    29    30   ar
    21    30    31    1
    22    30    32   ar
    23    32    33   ar
    24    23    24   ar
    25    24    25   ar
    26     3     4    1
    27     4     5    1
    28     5     6    2
    29     6     7    1
    30     7     8    2
    31     8     9    1
    32     9    10    1
    33    10    11    2
    34    11    12    1
    35    12    13    2
    36    36    37   ar
    37    37    38   ar
    38    38    34   ar
    39     6     1    1
    40    13     8    1
    41    20    15   ar
    42    25    21   ar
    43    13     5    1
    44    33    27   ar
    45     2    14    1
    46    25    26    1
@<TRIPOS>MOLECULE
*****
 40 46 0 0 0
SMALL
GASTEIGER

@<TRIPOS>ATOM
      1 C         140.6831  140.8937  160.0517 C.3     1  UNL1        0.1706
      2 N         141.0442  139.8410  159.0460 N.3     1  UNL1       -0.2797
      3 C         142.4006  139.2017  159.0837 C.3     1  UNL1        0.1167
      4 C         143.3959  139.6152  160.1270 C.3     1  UNL1        0.0511
      5 C         143.0348  140.6679  161.1326 C.2     1  UNL1       -0.0037
      6 C         141.6784  141.3071  161.0950 C.2     1  UNL1        0.0800
      7 N         141.6075  142.3098  162.2084 N.2     1  UNL1       -0.2519
      8 C         142.9200  142.2901  162.9342 C.2     1  UNL1        0.0627
      9 C         143.4259  143.0652  164.1146 C.3     1  UNL1        0.0717
     10 C         144.8140  142.8254  164.6301 C.2     1  UNL1       -0.0198
     11 C         145.6962  141.8107  163.9652 C.2     1  UNL1       -0.0042
     12 C         145.1903  141.0357  162.7848 C.2     1  UNL1        0.0006
     13 C         143.8022  141.2754  162.2693 C.2     1  UNL1        0.0111
     14 H         140.9451  140.2675  158.1248 H       1  UNL1        0.1246
     15 C         139.8793  141.9276  160.7833 C.ar    1  UNL1        0.2478
     16 N         139.7433  143.3715  160.4010 N.ar    1  UNL1       -0.1096
     17 N         138.8504  144.0353  161.4071 N.ar    1  UNL1       -0.1116
     18 C         138.4348  143.0015  162.4113 C.ar    1  UNL1        0.2267
     19 C         137.5402  143.2302  163.5935 C.3     1  UNL1        0.0967
     20 O         139.0707  141.6988  162.0257 O.2     1  UNL1       -0.4213
     21 C         142.7618  138.1489  158.0780 C.ar    1  UNL1        0.1319
     22 N         142.5164  136.6757  158.2172 N.ar    1  UNL1       -0.2282
     23 C         143.0347  136.0008  156.9818 C.ar    1  UNL1        0.1171
     24 C         143.6003  137.0570  156.0793 C.ar    1  UNL1        0.0942
     25 N         143.4316  138.3846  156.7568 N.ar    1  UNL1       -0.3385
     26 H         143.7115  139.2574  156.3974 H       1  UNL1        0.1672
     27 C         142.9944  134.5283  156.6988 C.ar    1  UNL1        0.1006
     28 C         142.0022  133.9803  155.7163 C.ar    1  UNL1        0.0230
     29 C         141.9618  132.5078  155.4333 C.ar    1  UNL1        0.0328
     30 C         142.9137  131.5833  156.1327 C.ar    1  UNL1        0.1592
     31 F         142.8734  130.1108  155.8497 F       1  UNL1       -0.2025
     32 C         143.9059  132.1313  157.1151 C.ar    1  UNL1        0.1284
     33 N         143.9463  133.6038  157.3982 N.ar    1  UNL1       -0.2399
     34 N         137.7280  141.2518  157.5607 N.ar    1  UNL1       -0.2497
     35 C         139.1136  141.6102  158.0100 C.ar    1  UNL1        0.0944
     36 C         139.4087  140.8393  159.2625 C.ar    1  UNL1        0.0439
     37 C         138.2055  140.0045  159.5872 C.ar    1  UNL1        0.1194
     38 N         137.1668  140.2594  158.5354 N.ar    1  UNL1       -0.1679
     39 C         135.7215  141.1960  155.9113 C.3     1  UNL1        0.0284
     40 C         137.0269  141.7911  156.3493 C.3     1  UNL1        0.1276
@<TRIPOS>BOND
     1    39    40    1
     2    40    34    1
     3    34    35   ar
     4    35    36   ar
     5     1    36    1
     6     1    15    1
     7    15    16   ar
     8    16    17   ar
     9    17    18   ar
    10    18    19    1
    11    18    20   ar
    12     1     2    1
    13     2     3    1
    14     3    21    1
    15    21    22   ar
    16    22    23   ar
    17    23    27    1
    18    27    28   ar
    19    28    29   ar
    20    29    30   ar
    21    30    31    1
    22    30    32   ar
    23    32    33   ar
    24    23    24   ar
    25    24    25   ar
    26     3     4    1
    27     4     5    1
    28     5     6    2
    29     6     7    1
    30     7     8    2
    31     8     9    1
    32     9    10    1
    33    10    11    2
    34    11    12    1
    35    12    13    2
    36    36    37   ar
    37    37    38   ar
    38    38    34   ar
    39     6     1    1
    40    13     8    1
    41    20    15   ar
    42    25    21   ar
    43    13     5    1
    44    33    27   ar
    45     2    14    1
    46    25    26    1
@<TRIPOS>MOLECULE
*****
 40 46 0 0 0
SMALL
GASTEIGER

@<TRIPOS>ATOM
      1 C         141.5750  142.0191  161.6305 C.3     1  UNL1        0.1706
      2 N         141.8190  141.2931  160.3408 N.3     1  UNL1       -0.2797
      3 C         142.3995  139.9100  160.3569 C.3     1  UNL1        0.1167
      4 C         142.7359  139.2530  161.6628 C.3     1  UNL1        0.0511
      5 C         142.4919  139.9791  162.9525 C.2     1  UNL1       -0.0037
      6 C         141.9114  141.3621  162.9363 C.2     1  UNL1        0.0800
      7 N         141.7828  141.8274  164.3565 N.2     1  UNL1       -0.2519
      8 C         142.2838  140.7319  165.2504 C.2     1  UNL1        0.0627
      9 C         142.3975  140.6270  166.7423 C.3     1  UNL1        0.0717
     10 C         142.9494  139.3798  167.3665 C.2     1  UNL1       -0.0198
     11 C         143.3876  138.2374  166.4988 C.2     1  UNL1       -0.0042
     12 C         143.2739  138.3423  165.0068 C.2     1  UNL1        0.0006
     13 C         142.7220  139.5896  164.3826 C.2     1  UNL1        0.0111
     14 H         142.4543  141.8726  159.7922 H       1  UNL1        0.1246
     15 C         141.1647  143.1042  162.5814 C.ar    1  UNL1        0.2478
     16 N         141.9816  144.3058  162.9535 N.ar    1  UNL1       -0.1096
     17 N         141.1871  145.1224  163.9293 N.ar    1  UNL1       -0.1116
     18 C         139.8792  144.4253  164.1602 C.ar    1  UNL1        0.2267
     19 C         138.7783  144.8935  165.0652 C.3     1  UNL1        0.0967
     20 O         139.8653  143.1780  163.3271 O.2     1  UNL1       -0.4213
     21 C         142.6435  139.1839  159.0672 C.ar    1  UNL1        0.1319
     22 N         142.5808  137.6988  158.8661 N.ar    1  UNL1       -0.2282
     23 C         142.8916  137.4125  157.4268 C.ar    1  UNL1        0.1171
     24 C         143.1464  138.7206  156.7385 C.ar    1  UNL1        0.0942
     25 N         142.9931  139.8154  157.7523 N.ar    1  UNL1       -0.3385
     26 H         143.1026  140.7793  157.5842 H       1  UNL1        0.1672
     27 C         142.9392  136.0561  156.7881 C.ar    1  UNL1        0.1006
     28 C         142.5651  135.8933  155.3446 C.ar    1  UNL1        0.0230
     29 C         142.6127  134.5370  154.7058 C.ar    1  UNL1        0.0328
     30 C         143.0344  133.3434  155.5105 C.ar    1  UNL1        0.1592
     31 F         143.0821  131.9870  154.8718 F       1  UNL1       -0.2025
     32 C         143.4086  133.5062  156.9540 C.ar    1  UNL1        0.1284
     33 N         143.3609  134.8625  157.5927 N.ar    1  UNL1       -0.2399
     34 N         141.0680  144.7818  158.9517 N.ar    1  UNL1       -0.2497
     35 C         141.9618  143.8837  159.7546 C.ar    1  UNL1        0.0944
     36 C         141.0961  143.0530  160.6549 C.ar    1  UNL1        0.0439
     37 C         139.6673  143.4376  160.4084 C.ar    1  UNL1        0.1194
     38 N         139.6500  144.5061  159.3557 N.ar    1  UNL1       -0.1679
     39 C         140.5512  146.2639  156.8813 C.3     1  UNL1        0.0284
     40 C         141.5140  145.7802  157.9249 C.3     1  UNL1        0.1276
@<TRIPOS>BOND
     1    39    40    1
     2    40    34    1
     3    34    35   ar
     4    35    36   ar
     5     1    36    1
     6     1    15    1
     7    15    16   ar
     8    16    17   ar
     9    17    18   ar
    10    18    19    1
    11    18    20   ar
    12     1     2    1
    13     2     3    1
    14     3    21    1
    15    21    22   ar
    16    22    23   ar
    17    23    27    1
    18    27    28   ar
    19    28    29   ar
    20    29    30   ar
    21    30    31    1
    22    30    32   ar
    23    32    33   ar
    24    23    24   ar
    25    24    25   ar
    26     3     4    1
    27     4     5    1
    28     5     6    2
    29     6     7    1
    30     7     8    2
    31     8     9    1
    32     9    10    1
    33    10    11    2
    34    11    12    1
    35    12    13    2
    36    36    37   ar
    37    37    38   ar
    38    38    34   ar
    39     6     1    1
    40    13     8    1
    41    20    15   ar
    42    25    21   ar
    43    13     5    1
    44    33    27   ar
    45     2    14    1
    46    25    26    1
@<TRIPOS>MOLECULE
*****
 40 46 0 0 0
SMALL
GASTEIGER

@<TRIPOS>ATOM
      1 C         141.7248  141.7395  158.8357 C.3     1  UNL1        0.1706
      2 N         141.6224  140.4691  158.0447 N.3     1  UNL1       -0.2797
      3 C         142.3105  139.2271  158.5284 C.3     1  UNL1        0.1167
      4 C         143.1008  139.2554  159.8029 C.3     1  UNL1        0.0511
      5 C         143.2032  140.5258  160.5939 C.2     1  UNL1       -0.0037
      6 C         142.5152  141.7678  160.1102 C.2     1  UNL1        0.0800
      7 N         142.7928  142.8648  161.0950 N.2     1  UNL1       -0.2519
      8 C         143.6524  142.3006  162.1872 C.2     1  UNL1        0.0627
      9 C         144.2369  142.9165  163.4237 C.3     1  UNL1        0.0717
     10 C         145.0750  142.0868  164.3505 C.2     1  UNL1       -0.0198
     11 C         145.3287  140.6412  164.0408 C.2     1  UNL1       -0.0042
     12 C         144.7442  140.0253  162.8043 C.2     1  UNL1        0.0006
     13 C         143.9060  140.8550  161.8775 C.2     1  UNL1        0.0111
     14 H         141.9946  140.6694  157.1164 H       1  UNL1        0.1246
     15 C         141.5291  143.1730  159.2318 C.ar    1  UNL1        0.2478
     16 N         142.3066  144.3455  158.7116 N.ar    1  UNL1       -0.1096
     17 N         141.7795  145.5828  159.3760 N.ar    1  UNL1       -0.1116
     18 C         140.6763  145.1748  160.3068 C.ar    1  UNL1        0.2267
     19 C         139.8695  146.0948  161.1745 C.3     1  UNL1        0.0967
     20 O         140.5215  143.6855  160.2177 O.2     1  UNL1       -0.4213
     21 C         142.2081  137.9566  157.7374 C.ar    1  UNL1        0.1319
     22 N         143.1307  136.7783  157.8387 N.ar    1  UNL1       -0.2282
     23 C         142.6580  135.7349  156.8703 C.ar    1  UNL1        0.1171
     24 C         141.4433  136.2684  156.1705 C.ar    1  UNL1        0.0942
     25 N         141.1652  137.6415  156.7064 N.ar    1  UNL1       -0.3385
     26 H         140.4277  138.2321  156.4300 H       1  UNL1        0.1672
     27 C         143.2893  134.3934  156.6418 C.ar    1  UNL1        0.1006
     28 C         143.0437  133.6579  155.3577 C.ar    1  UNL1        0.0230
     29 C         143.6749  132.3166  155.1292 C.ar    1  UNL1        0.0328
     30 C         144.5518  131.7107  156.1847 C.ar    1  UNL1        0.1592
     31 F         145.1831  130.3693  155.9562 F       1  UNL1       -0.2025
     32 C         144.7974  132.4463  157.4687 C.ar    1  UNL1        0.1284
     33 N         144.1662  133.7876  157.6972 N.ar    1  UNL1       -0.2399
     34 N         138.9442  142.9163  156.3967 N.ar    1  UNL1       -0.2497
     35 C         139.3887  142.4603  157.7549 C.ar    1  UNL1        0.0944
     36 C         140.8665  142.2090  157.6987 C.ar    1  UNL1        0.0439
     37 C         141.3352  142.5098  156.3059 C.ar    1  UNL1        0.1194
     38 N         140.1471  142.9469  155.5012 N.ar    1  UNL1       -0.1679
     39 C         137.2956  144.4553  155.1068 C.3     1  UNL1        0.0284
     40 C         137.5427  143.2782  156.0032 C.3     1  UNL1        0.1276
@<TRIPOS>BOND
     1    39    40    1
     2    40    34    1
     3    34    35   ar
     4    35    36   ar
     5     1    36    1
     6     1    15    1
     7    15    16   ar
     8    16    17   ar
     9    17    18   ar
    10    18    19    1
    11    18    20   ar
    12     1     2    1
    13     2     3    1
    14     3    21    1
    15    21    22   ar
    16    22    23   ar
    17    23    27    1
    18    27    28   ar
    19    28    29   ar
    20    29    30   ar
    21    30    31    1
    22    30    32   ar
    23    32    33   ar
    24    23    24   ar
    25    24    25   ar
    26     3     4    1
    27     4     5    1
    28     5     6    2
    29     6     7    1
    30     7     8    2
    31     8     9    1
    32     9    10    1
    33    10    11    2
    34    11    12    1
    35    12    13    2
    36    36    37   ar
    37    37    38   ar
    38    38    34   ar
    39     6     1    1
    40    13     8    1
    41    20    15   ar
    42    25    21   ar
    43    13     5    1
    44    33    27   ar
    45     2    14    1
    46    25    26    1
@<TRIPOS>MOLECULE
*****
 40 46 0 0 0
SMALL
GASTEIGER

@<TRIPOS>ATOM
      1 C         142.5829  139.8773  159.6882 C.3     1  UNL1        0.1706
      2 N         143.2822  140.3540  158.4498 N.3     1  UNL1       -0.2797
      3 C         144.1653  141.5653  158.5064 C.3     1  UNL1        0.1167
      4 C         144.3489  142.2998  159.8013 C.3     1  UNL1        0.0511
      5 C         143.6495  141.8231  161.0396 C.2     1  UNL1       -0.0037
      6 C         142.7665  140.6119  160.9831 C.2     1  UNL1        0.0800
      7 N         142.2104  140.3792  162.3566 N.2     1  UNL1       -0.2519
      8 C         142.7498  141.4466  163.2621 C.2     1  UNL1        0.0627
      9 C         142.5459  141.7212  164.7225 C.3     1  UNL1        0.0717
     10 C         143.2315  142.8882  165.3690 C.2     1  UNL1       -0.0198
     11 C         144.1209  143.7806  164.5551 C.2     1  UNL1       -0.0042
     12 C         144.3247  143.5060  163.0946 C.2     1  UNL1        0.0006
     13 C         143.6392  142.3390  162.4481 C.2     1  UNL1        0.0111
     14 H         142.5575  140.5500  157.7593 H       1  UNL1        0.1246
     15 C         141.7150  139.0452  160.5851 C.ar    1  UNL1        0.2478
     16 N         142.1480  137.8313  161.3524 N.ar    1  UNL1       -0.1096
     17 N         140.9623  137.3168  162.1136 N.ar    1  UNL1       -0.1116
     18 C         139.7966  138.2127  161.8168 C.ar    1  UNL1        0.2267
     19 C         138.4092  138.0662  162.3679 C.3     1  UNL1        0.0967
     20 O         140.2617  139.2810  160.8721 O.2     1  UNL1       -0.4213
     21 C         144.8647  142.0420  157.2679 C.ar    1  UNL1        0.1319
     22 N         146.3154  141.8429  156.9428 N.ar    1  UNL1       -0.2282
     23 C         146.5835  142.4794  155.6112 C.ar    1  UNL1        0.1171
     24 C         145.2985  143.0719  155.1135 C.ar    1  UNL1        0.0942
     25 N         144.2362  142.8016  156.1374 N.ar    1  UNL1       -0.3385
     26 H         143.2923  143.0747  156.0779 H       1  UNL1        0.1672
     27 C         147.9048  142.5168  154.9019 C.ar    1  UNL1        0.1006
     28 C         149.0821  141.7812  155.4701 C.ar    1  UNL1        0.0230
     29 C         150.4032  141.8185  154.7608 C.ar    1  UNL1        0.0328
     30 C         150.5471  142.5915  153.4835 C.ar    1  UNL1        0.1592
     31 F         151.8683  142.6289  152.7742 F       1  UNL1       -0.2025
     32 C         149.3698  143.3271  152.9153 C.ar    1  UNL1        0.1284
     33 N         148.0486  143.2897  153.6245 N.ar    1  UNL1       -0.2399
     34 N         142.0186  136.9373  157.2178 N.ar    1  UNL1       -0.2497
     35 C         142.8923  137.6996  158.1694 C.ar    1  UNL1        0.0944
     36 C         142.0978  138.8538  158.7048 C.ar    1  UNL1        0.0439
     37 C         140.7331  138.8048  158.0841 C.ar    1  UNL1        0.1194
     38 N         140.6841  137.6202  157.1651 N.ar    1  UNL1       -0.1679
     39 C         143.7713  135.6147  155.8290 C.3     1  UNL1        0.0284
     40 C         142.4105  135.7077  156.4531 C.3     1  UNL1        0.1276
@<TRIPOS>BOND
     1    39    40    1
     2    40    34    1
     3    34    35   ar
     4    35    36   ar
     5     1    36    1
     6     1    15    1
     7    15    16   ar
     8    16    17   ar
     9    17    18   ar
    10    18    19    1
    11    18    20   ar
    12     1     2    1
    13     2     3    1
    14     3    21    1
    15    21    22   ar
    16    22    23   ar
    17    23    27    1
    18    27    28   ar
    19    28    29   ar
    20    29    30   ar
    21    30    31    1
    22    30    32   ar
    23    32    33   ar
    24    23    24   ar
    25    24    25   ar
    26     3     4    1
    27     4     5    1
    28     5     6    2
    29     6     7    1
    30     7     8    2
    31     8     9    1
    32     9    10    1
    33    10    11    2
    34    11    12    1
    35    12    13    2
    36    36    37   ar
    37    37    38   ar
    38    38    34   ar
    39     6     1    1
    40    13     8    1
    41    20    15   ar
    42    25    21   ar
    43    13     5    1
    44    33    27   ar
    45     2    14    1
    46    25    26    1
@<TRIPOS>MOLECULE
*****
 40 46 0 0 0
SMALL
GASTEIGER

@<TRIPOS>ATOM
      1 C         139.5702  140.9353  159.4430 C.3     1  UNL1        0.1706
      2 N         139.8033  139.6030  158.7945 N.3     1  UNL1       -0.2797
      3 C         140.3238  139.5336  157.3895 C.3     1  UNL1        0.1167
      4 C         140.6112  140.7965  156.6328 C.3     1  UNL1        0.0511
      5 C         140.3781  142.1288  157.2812 C.2     1  UNL1       -0.0037
      6 C         139.8576  142.1982  158.6863 C.2     1  UNL1        0.0800
      7 N         139.7266  143.6448  159.0611 N.2     1  UNL1       -0.2519
      8 C         140.1661  144.4693  157.8876 C.2     1  UNL1        0.0627
      9 C         140.2516  145.9522  157.6786 C.3     1  UNL1        0.0717
     10 C         140.7399  146.4981  156.3697 C.2     1  UNL1       -0.0198
     11 C         141.1425  145.5612  155.2696 C.2     1  UNL1       -0.0042
     12 C         141.0570  144.0783  155.4786 C.2     1  UNL1        0.0006
     13 C         140.5687  143.5324  156.7876 C.2     1  UNL1        0.0111
     14 H         138.9096  139.1115  158.8021 H       1  UNL1        0.1246
     15 C         139.1916  141.9518  160.4792 C.ar    1  UNL1        0.2478
     16 N         137.8553  142.6198  160.6120 N.ar    1  UNL1       -0.1096
     17 N         137.9208  143.5595  161.7794 N.ar    1  UNL1       -0.1116
     18 C         139.2977  143.4721  162.3680 C.ar    1  UNL1        0.2267
     19 C         139.8008  144.2431  163.5523 C.3     1  UNL1        0.0967
     20 O         140.0831  142.4785  161.5644 O.2     1  UNL1       -0.4213
     21 C         140.5569  138.2011  156.7410 C.ar    1  UNL1        0.1319
     22 N         141.6729  137.2501  157.0570 N.ar    1  UNL1       -0.2282
     23 C         141.5207  136.0471  156.1740 C.ar    1  UNL1        0.1171
     24 C         140.3106  136.2547  155.3123 C.ar    1  UNL1        0.0942
     25 N         139.7149  137.5860  155.6627 N.ar    1  UNL1       -0.3385
     26 H         138.9122  137.9858  155.2564 H       1  UNL1        0.1672
     27 C         142.4207  134.8471  156.1559 C.ar    1  UNL1        0.1006
     28 C         142.4236  133.9297  154.9691 C.ar    1  UNL1        0.0230
     29 C         143.3235  132.7298  154.9510 C.ar    1  UNL1        0.0328
     30 C         144.2204  132.4473  156.1195 C.ar    1  UNL1        0.1592
     31 F         145.1204  131.2474  156.1014 F       1  UNL1       -0.2025
     32 C         144.2175  133.3647  157.3063 C.ar    1  UNL1        0.1284
     33 N         143.3176  134.5646  157.3244 N.ar    1  UNL1       -0.2399
     34 N         139.2248  138.5365  162.4747 N.ar    1  UNL1       -0.2497
     35 C         140.0671  139.3470  161.5347 C.ar    1  UNL1        0.0944
     36 C         139.1513  140.0255  160.5595 C.ar    1  UNL1        0.0439
     37 C         137.7430  139.6343  160.8968 C.ar    1  UNL1        0.1194
     38 N         137.7885  138.7140  162.0806 N.ar    1  UNL1       -0.1679
     39 C         141.1255  137.1468  163.5729 C.3     1  UNL1        0.0284
     40 C         139.7302  137.6960  163.6098 C.3     1  UNL1        0.1276
@<TRIPOS>BOND
     1    39    40    1
     2    40    34    1
     3    34    35   ar
     4    35    36   ar
     5     1    36    1
     6     1    15    1
     7    15    16   ar
     8    16    17   ar
     9    17    18   ar
    10    18    19    1
    11    18    20   ar
    12     1     2    1
    13     2     3    1
    14     3    21    1
    15    21    22   ar
    16    22    23   ar
    17    23    27    1
    18    27    28   ar
    19    28    29   ar
    20    29    30   ar
    21    30    31    1
    22    30    32   ar
    23    32    33   ar
    24    23    24   ar
    25    24    25   ar
    26     3     4    1
    27     4     5    1
    28     5     6    2
    29     6     7    1
    30     7     8    2
    31     8     9    1
    32     9    10    1
    33    10    11    2
    34    11    12    1
    35    12    13    2
    36    36    37   ar
    37    37    38   ar
    38    38    34   ar
    39     6     1    1
    40    13     8    1
    41    20    15   ar
    42    25    21   ar
    43    13     5    1
    44    33    27   ar
    45     2    14    1
    46    25    26    1
@<TRIPOS>MOLECULE
*****
 40 46 0 0 0
SMALL
GASTEIGER

@<TRIPOS>ATOM
      1 C         141.4470  141.3601  160.5320 C.3     1  UNL1        0.1706
      2 N         141.2228  142.0716  159.2307 N.3     1  UNL1       -0.2797
      3 C         140.4913  143.3809  159.2082 C.3     1  UNL1        0.1167
      4 C         139.9839  143.9787  160.4869 C.3     1  UNL1        0.0511
      5 C         140.2080  143.2672  161.7882 C.2     1  UNL1       -0.0037
      6 C         140.9396  141.9578  161.8108 C.2     1  UNL1        0.0800
      7 N         141.0101  141.4908  163.2344 N.2     1  UNL1       -0.2519
      8 C         140.3222  142.5114  164.0918 C.2     1  UNL1        0.0627
      9 C         140.0831  142.5829  165.5709 C.3     1  UNL1        0.0717
     10 C         139.3483  143.7523  166.1561 C.2     1  UNL1       -0.0198
     11 C         138.8526  144.8502  165.2623 C.2     1  UNL1       -0.0042
     12 C         139.0916  144.7787  163.7832 C.2     1  UNL1        0.0006
     13 C         139.8264  143.6093  163.1980 C.2     1  UNL1        0.0111
     14 H         140.7006  141.4322  158.6316 H       1  UNL1        0.1246
     15 C         141.9023  140.3148  161.5068 C.ar    1  UNL1        0.2478
     16 N         143.2901  140.1661  162.0559 N.ar    1  UNL1       -0.1096
     17 N         143.2951  138.9942  162.9921 N.ar    1  UNL1       -0.1116
     18 C         141.9103  138.4187  163.0217 C.ar    1  UNL1        0.2267
     19 C         141.4645  137.2347  163.8277 C.3     1  UNL1        0.0967
     20 O         141.0494  139.2349  162.1037 O.2     1  UNL1       -0.4213
     21 C         140.2671  144.0926  157.9068 C.ar    1  UNL1        0.1319
     22 N         140.0856  145.5710  157.7303 N.ar    1  UNL1       -0.2282
     23 C         139.8914  145.8429  156.2680 C.ar    1  UNL1        0.1171
     24 C         139.9528  144.5324  155.5408 C.ar    1  UNL1        0.0942
     25 N         140.1850  143.4507  156.5536 N.ar    1  UNL1       -0.3385
     26 H         140.2688  142.4883  156.3636 H       1  UNL1        0.1672
     27 C         139.6739  147.1889  155.6427 C.ar    1  UNL1        0.1006
     28 C         140.2710  147.4983  154.3019 C.ar    1  UNL1        0.0230
     29 C         140.0535  148.8443  153.6766 C.ar    1  UNL1        0.0328
     30 C         139.2390  149.8809  154.3921 C.ar    1  UNL1        0.1592
     31 F         139.0215  151.2269  153.7668 F       1  UNL1       -0.2025
     32 C         138.6419  149.5715  155.7329 C.ar    1  UNL1        0.1284
     33 N         138.8594  148.2255  156.3582 N.ar    1  UNL1       -0.2399
     34 N         142.5351  138.4741  158.1757 N.ar    1  UNL1       -0.2497
     35 C         141.5303  139.1116  159.0889 C.ar    1  UNL1        0.0944
     36 C         142.1125  140.3993  159.5918 C.ar    1  UNL1        0.0439
     37 C         143.4771  140.5576  158.9894 C.ar    1  UNL1        0.1194
     38 N         143.7383  139.3676  158.1142 N.ar    1  UNL1       -0.1679
     39 C         143.2849  136.8185  156.3191 C.3     1  UNL1        0.0284
     40 C         142.3663  137.1715  157.4511 C.3     1  UNL1        0.1276
@<TRIPOS>BOND
     1    39    40    1
     2    40    34    1
     3    34    35   ar
     4    35    36   ar
     5     1    36    1
     6     1    15    1
     7    15    16   ar
     8    16    17   ar
     9    17    18   ar
    10    18    19    1
    11    18    20   ar
    12     1     2    1
    13     2     3    1
    14     3    21    1
    15    21    22   ar
    16    22    23   ar
    17    23    27    1
    18    27    28   ar
    19    28    29   ar
    20    29    30   ar
    21    30    31    1
    22    30    32   ar
    23    32    33   ar
    24    23    24   ar
    25    24    25   ar
    26     3     4    1
    27     4     5    1
    28     5     6    2
    29     6     7    1
    30     7     8    2
    31     8     9    1
    32     9    10    1
    33    10    11    2
    34    11    12    1
    35    12    13    2
    36    36    37   ar
    37    37    38   ar
    38    38    34   ar
    39     6     1    1
    40    13     8    1
    41    20    15   ar
    42    25    21   ar
    43    13     5    1
    44    33    27   ar
    45     2    14    1
    46    25    26    1
@<TRIPOS>MOLECULE
*****
 40 46 0 0 0
SMALL
GASTEIGER

@<TRIPOS>ATOM
      1 C         141.0272  142.2673  160.1028 C.3     1  UNL1        0.1706
      2 N         142.0081  142.1116  158.9787 N.3     1  UNL1       -0.2797
      3 C         142.8415  140.8686  158.8773 C.3     1  UNL1        0.1167
      4 C         142.6940  139.7813  159.9001 C.3     1  UNL1        0.0511
      5 C         141.7132  139.9370  161.0242 C.2     1  UNL1       -0.0037
      6 C         140.8798  141.1800  161.1256 C.2     1  UNL1        0.0800
      7 N         140.0028  141.0526  162.3358 N.2     1  UNL1       -0.2519
      8 C         140.2941  139.7308  162.9823 C.2     1  UNL1        0.0627
      9 C         139.7334  139.0660  164.2044 C.3     1  UNL1        0.0717
     10 C         140.2298  137.7117  164.6159 C.2     1  UNL1       -0.0198
     11 C         141.2869  137.0222  163.8053 C.2     1  UNL1       -0.0042
     12 C         141.8477  137.6870  162.5832 C.2     1  UNL1        0.0006
     13 C         141.3512  139.0413  162.1717 C.2     1  UNL1        0.0111
     14 H         142.6564  142.8964  159.0428 H       1  UNL1        0.1246
     15 C         139.9701  142.8738  160.9773 C.ar    1  UNL1        0.2478
     16 N         138.5000  142.9166  160.6827 N.ar    1  UNL1       -0.1096
     17 N         137.8188  143.6132  161.8233 N.ar    1  UNL1       -0.1116
     18 C         138.8680  144.0009  162.8227 C.ar    1  UNL1        0.2267
     19 C         138.6295  144.7194  164.1177 C.3     1  UNL1        0.0967
     20 O         140.1976  143.5439  162.2998 O.2     1  UNL1       -0.4213
     21 C         143.8224  140.7128  157.7531 C.ar    1  UNL1        0.1319
     22 N         144.7379  141.7786  157.2280 N.ar    1  UNL1       -0.2282
     23 C         145.5413  141.1884  156.1071 C.ar    1  UNL1        0.1171
     24 C         145.1222  139.7580  155.9395 C.ar    1  UNL1        0.0942
     25 N         144.0598  139.4640  156.9569 N.ar    1  UNL1       -0.3385
     26 H         143.5992  138.6027  157.0803 H       1  UNL1        0.1672
     27 C         146.5812  141.9033  155.2961 C.ar    1  UNL1        0.1006
     28 C         146.2034  143.1083  154.4867 C.ar    1  UNL1        0.0230
     29 C         147.2433  143.8232  153.6757 C.ar    1  UNL1        0.0328
     30 C         148.6609  143.3330  153.6743 C.ar    1  UNL1        0.1592
     31 F         149.7008  144.0479  152.8633 F       1  UNL1       -0.2025
     32 C         149.0387  142.1280  154.4838 C.ar    1  UNL1        0.1284
     33 N         147.9988  141.4131  155.2947 N.ar    1  UNL1       -0.2399
     34 N         140.1582  145.1924  157.7041 N.ar    1  UNL1       -0.2497
     35 C         140.1749  143.7291  158.0336 C.ar    1  UNL1        0.0944
     36 C         140.8075  143.5653  159.3838 C.ar    1  UNL1        0.0439
     37 C         141.1818  144.9273  159.8887 C.ar    1  UNL1        0.1194
     38 N         140.7805  145.9329  158.8505 N.ar    1  UNL1       -0.1679
     39 C         139.2075  147.2509  156.4356 C.3     1  UNL1        0.0284
     40 C         139.6147  145.8073  156.4484 C.3     1  UNL1        0.1276
@<TRIPOS>BOND
     1    39    40    1
     2    40    34    1
     3    34    35   ar
     4    35    36   ar
     5     1    36    1
     6     1    15    1
     7    15    16   ar
     8    16    17   ar
     9    17    18   ar
    10    18    19    1
    11    18    20   ar
    12     1     2    1
    13     2     3    1
    14     3    21    1
    15    21    22   ar
    16    22    23   ar
    17    23    27    1
    18    27    28   ar
    19    28    29   ar
    20    29    30   ar
    21    30    31    1
    22    30    32   ar
    23    32    33   ar
    24    23    24   ar
    25    24    25   ar
    26     3     4    1
    27     4     5    1
    28     5     6    2
    29     6     7    1
    30     7     8    2
    31     8     9    1
    32     9    10    1
    33    10    11    2
    34    11    12    1
    35    12    13    2
    36    36    37   ar
    37    37    38   ar
    38    38    34   ar
    39     6     1    1
    40    13     8    1
    41    20    15   ar
    42    25    21   ar
    43    13     5    1
    44    33    27   ar
    45     2    14    1
    46    25    26    1
