@<TRIPOS>MOLECULE
*****
 32 35 0 0 0
SMALL
GASTEIGER

@<TRIPOS>ATOM
      1 C         142.2998  139.1123  169.7416 C.ar    1  UNL1        0.0503
      2 C         140.9323  139.6380  170.0633 C.ar    1  UNL1        0.0148
      3 C         140.1423  140.3641  169.0152 C.ar    1  UNL1        0.0060
      4 C         140.7198  140.5645  167.6454 C.ar    1  UNL1        0.0553
      5 C         142.0873  140.0388  167.3236 C.ar    1  UNL1        0.0060
      6 C         142.8773  139.3127  168.3717 C.ar    1  UNL1        0.0148
      7 C         139.9296  141.2906  166.5972 C.ar    1  UNL1        0.2512
      8 N         140.0661  142.7403  166.2370 N.ar    1  UNL1       -0.1058
      9 N         139.0852  143.0403  165.1425 N.ar    1  UNL1       -0.0923
     10 C         138.3425  141.7759  164.8263 C.ar    1  UNL1        0.3086
     11 O         138.8645  140.6946  165.7254 O.2     1  UNL1       -0.4048
     12 N         137.2668  141.6202  163.7926 N.pl3   1  UNL1       -0.2871
     13 H         136.3671  141.3228  164.0594 H       1  UNL1        0.1512
     14 C         137.5620  141.9177  162.3523 C.3     1  UNL1        0.0925
     15 C         137.9617  140.8092  161.4241 C.3     1  UNL1        0.0386
     16 C         137.9793  139.3913  161.9131 C.3     1  UNL1        0.0738
     17 N         139.0865  138.9205  162.8087 N.3     1  UNL1       -0.2726
     18 C         140.4561  139.5199  162.6868 C.3     1  UNL1        0.0721
     19 C         141.5634  139.0491  163.5824 C.3     1  UNL1        0.0174
     20 C         141.3012  137.9787  164.6000 C.3     1  UNL1        0.0029
     21 C         139.9316  137.3792  164.7219 C.3     1  UNL1        0.0174
     22 C         138.8243  137.8501  163.8262 C.3     1  UNL1        0.0721
     23 O         144.1261  136.8657  168.9553 O.2     1  UNL1       -0.2748
     24 C         144.0030  137.2629  170.3966 C.2     1  UNL1        0.2256
     25 N         143.0900  138.3861  170.7897 N.am    1  UNL1       -0.2839
     26 H         143.0092  138.6467  171.7356 H       1  UNL1        0.1549
     27 C         144.7932  136.5367  171.4447 C.3     1  UNL1        0.0768
     28 C         144.6066  135.0608  171.6362 C.3     1  UNL1        0.0091
     29 C         145.3966  134.3347  172.6842 C.3     1  UNL1        0.0005
     30 C         146.3733  135.0846  173.5408 C.3     1  UNL1        0.0000
     31 C         146.5599  136.5605  173.3494 C.3     1  UNL1        0.0005
     32 C         145.7699  137.2866  172.3013 C.3     1  UNL1        0.0091
@<TRIPOS>BOND
     1    23    24    2
     2    24    25   am
     3    25     1    1
     4     1     2   ar
     5     2     3   ar
     6     3     4   ar
     7     4     7    1
     8     7     8   ar
     9     8     9   ar
    10     9    10   ar
    11    10    12    1
    12    12    14    1
    13    14    15    1
    14    15    16    1
    15    16    17    1
    16    17    18    1
    17    18    19    1
    18    19    20    1
    19    20    21    1
    20    21    22    1
    21    10    11   ar
    22     4     5   ar
    23     5     6   ar
    24    24    27    1
    25    27    28    1
    26    28    29    1
    27    29    30    1
    28    30    31    1
    29    31    32    1
    30     6     1   ar
    31    32    27    1
    32    11     7   ar
    33    22    17    1
    34    25    26    1
    35    12    13    1
@<TRIPOS>MOLECULE
*****
 32 35 0 0 0
SMALL
GASTEIGER

@<TRIPOS>ATOM
      1 C         140.4669  142.6104  162.3997 C.ar    1  UNL1        0.0503
      2 C         140.2436  143.3886  163.6624 C.ar    1  UNL1        0.0148
      3 C         139.8184  142.6806  164.9145 C.ar    1  UNL1        0.0060
      4 C         139.6164  141.1943  164.9039 C.ar    1  UNL1        0.0553
      5 C         139.8397  140.4160  163.6412 C.ar    1  UNL1        0.0060
      6 C         140.2649  141.1241  162.3891 C.ar    1  UNL1        0.0148
      7 C         139.1912  140.4862  166.1561 C.ar    1  UNL1        0.2512
      8 N         138.3222  139.2655  166.2269 N.ar    1  UNL1       -0.1058
      9 N         138.1542  138.8994  167.6718 N.ar    1  UNL1       -0.0923
     10 C         138.9194  139.8937  168.4939 C.ar    1  UNL1        0.3086
     11 O         139.5603  140.8744  167.5571 O.2     1  UNL1       -0.4048
     12 N         139.0251  139.9053  169.9902 N.pl3   1  UNL1       -0.2871
     13 H         138.2131  139.8294  170.5416 H       1  UNL1        0.1512
     14 C         140.3680  140.0326  170.6462 C.3     1  UNL1        0.0925
     15 C         141.5999  139.5634  169.9304 C.3     1  UNL1        0.0386
     16 C         142.6176  140.5588  169.4576 C.3     1  UNL1        0.0738
     17 N         142.8383  140.7655  167.9885 N.3     1  UNL1       -0.2726
     18 C         142.7740  139.5981  167.0488 C.3     1  UNL1        0.0721
     19 C         142.9948  139.8048  165.5796 C.3     1  UNL1        0.0174
     20 C         143.2797  141.1790  165.0501 C.3     1  UNL1        0.0029
     21 C         143.3440  142.3464  165.9897 C.3     1  UNL1        0.0174
     22 C         143.1233  142.1397  167.4589 C.3     1  UNL1        0.0721
     23 O         138.4628  143.1698  160.2384 O.2     1  UNL1       -0.2748
     24 C         139.8901  143.5982  160.0669 C.2     1  UNL1        0.2256
     25 N         140.8921  143.3185  161.1475 N.am    1  UNL1       -0.2839
     26 H         141.8288  143.5997  161.0350 H       1  UNL1        0.1549
     27 C         140.3153  144.3062  158.8148 C.3     1  UNL1        0.0768
     28 C         141.4586  145.2764  158.8532 C.3     1  UNL1        0.0091
     29 C         141.8838  145.9844  157.6011 C.3     1  UNL1        0.0005
     30 C         141.1657  145.7223  156.3105 C.3     1  UNL1        0.0000
     31 C         140.0224  144.7521  156.2721 C.3     1  UNL1        0.0005
     32 C         139.5972  144.0441  157.5242 C.3     1  UNL1        0.0091
@<TRIPOS>BOND
     1    23    24    2
     2    24    25   am
     3    25     1    1
     4     1     2   ar
     5     2     3   ar
     6     3     4   ar
     7     4     7    1
     8     7     8   ar
     9     8     9   ar
    10     9    10   ar
    11    10    12    1
    12    12    14    1
    13    14    15    1
    14    15    16    1
    15    16    17    1
    16    17    18    1
    17    18    19    1
    18    19    20    1
    19    20    21    1
    20    21    22    1
    21    10    11   ar
    22     4     5   ar
    23     5     6   ar
    24    24    27    1
    25    27    28    1
    26    28    29    1
    27    29    30    1
    28    30    31    1
    29    31    32    1
    30     6     1   ar
    31    32    27    1
    32    11     7   ar
    33    22    17    1
    34    25    26    1
    35    12    13    1
@<TRIPOS>MOLECULE
*****
 32 35 0 0 0
SMALL
GASTEIGER

@<TRIPOS>ATOM
      1 C         139.4998  139.2555  162.5987 C.ar    1  UNL1        0.0503
      2 C         139.2580  138.0801  163.4985 C.ar    1  UNL1        0.0148
      3 C         139.1173  138.2845  164.9778 C.ar    1  UNL1        0.0060
      4 C         139.2185  139.6643  165.5573 C.ar    1  UNL1        0.0553
      5 C         139.4603  140.8398  164.6574 C.ar    1  UNL1        0.0060
      6 C         139.6010  140.6354  163.1781 C.ar    1  UNL1        0.0148
      7 C         139.0778  139.8687  167.0367 C.ar    1  UNL1        0.2512
      8 N         138.2082  139.0664  167.9588 N.ar    1  UNL1       -0.1058
      9 N         138.3749  139.6130  169.3456 N.ar    1  UNL1       -0.0923
     10 C         139.3476  140.7532  169.2806 C.ar    1  UNL1        0.3086
     11 O         139.7820  140.9111  167.8536 O.2     1  UNL1       -0.4048
     12 N         139.8054  141.5886  170.4393 N.pl3   1  UNL1       -0.2871
     13 H         139.7685  141.2249  171.3534 H       1  UNL1        0.1512
     14 C         140.3196  142.9781  170.2052 C.3     1  UNL1        0.0925
     15 C         141.7969  143.2316  170.1488 C.3     1  UNL1        0.0386
     16 C         142.7492  142.0840  169.9873 C.3     1  UNL1        0.0738
     17 N         142.8162  141.3426  168.6851 N.3     1  UNL1       -0.2726
     18 C         142.9346  142.1002  167.3959 C.3     1  UNL1        0.0721
     19 C         143.0016  141.3588  166.0937 C.3     1  UNL1        0.0174
     20 C         142.9502  139.8597  166.0806 C.3     1  UNL1        0.0029
     21 C         142.8318  139.1021  167.3698 C.3     1  UNL1        0.0174
     22 C         142.7648  139.8436  168.6721 C.3     1  UNL1        0.0721
     23 O         142.1952  138.6807  161.4134 O.2     1  UNL1       -0.2748
     24 C         140.9882  138.7638  160.5267 C.2     1  UNL1        0.2256
     25 N         139.6405  139.0512  161.1193 N.am    1  UNL1       -0.2839
     26 H         138.8484  139.1056  160.5373 H       1  UNL1        0.1549
     27 C         141.1289  138.5594  159.0473 C.3     1  UNL1        0.0768
     28 C         139.9071  138.3866  158.1945 C.3     1  UNL1        0.0091
     29 C         140.0478  138.1822  156.7152 C.3     1  UNL1        0.0005
     30 C         141.4103  138.1507  156.0887 C.3     1  UNL1        0.0000
     31 C         142.6321  138.3235  156.9415 C.3     1  UNL1        0.0005
     32 C         142.4914  138.5279  158.4208 C.3     1  UNL1        0.0091
@<TRIPOS>BOND
     1    23    24    2
     2    24    25   am
     3    25     1    1
     4     1     2   ar
     5     2     3   ar
     6     3     4   ar
     7     4     7    1
     8     7     8   ar
     9     8     9   ar
    10     9    10   ar
    11    10    12    1
    12    12    14    1
    13    14    15    1
    14    15    16    1
    15    16    17    1
    16    17    18    1
    17    18    19    1
    18    19    20    1
    19    20    21    1
    20    21    22    1
    21    10    11   ar
    22     4     5   ar
    23     5     6   ar
    24    24    27    1
    25    27    28    1
    26    28    29    1
    27    29    30    1
    28    30    31    1
    29    31    32    1
    30     6     1   ar
    31    32    27    1
    32    11     7   ar
    33    22    17    1
    34    25    26    1
    35    12    13    1
@<TRIPOS>MOLECULE
*****
 32 35 0 0 0
SMALL
GASTEIGER

@<TRIPOS>ATOM
      1 C         138.4919  138.9382  162.8103 C.ar    1  UNL1        0.0503
      2 C         138.0276  140.2419  163.3887 C.ar    1  UNL1        0.0148
      3 C         138.0776  140.4648  164.8712 C.ar    1  UNL1        0.0060
      4 C         138.5919  139.3840  165.7752 C.ar    1  UNL1        0.0553
      5 C         139.0562  138.0802  165.1968 C.ar    1  UNL1        0.0060
      6 C         139.0062  137.8573  163.7144 C.ar    1  UNL1        0.0148
      7 C         138.6418  139.6069  167.2578 C.ar    1  UNL1        0.2512
      8 N         137.7808  138.9275  168.2811 N.ar    1  UNL1       -0.1058
      9 N         138.1684  139.4491  169.6330 N.ar    1  UNL1       -0.0923
     10 C         139.2690  140.4509  169.4452 C.ar    1  UNL1        0.3086
     11 O         139.5615  140.5484  167.9773 O.2     1  UNL1       -0.4048
     12 N         139.9563  141.2201  170.5343 N.pl3   1  UNL1       -0.2871
     13 H         139.4536  141.4964  171.3344 H       1  UNL1        0.1512
     14 C         141.4095  141.5683  170.4042 C.3     1  UNL1        0.0925
     15 C         141.8526  142.5652  169.3747 C.3     1  UNL1        0.0386
     16 C         142.9412  142.2094  168.4060 C.3     1  UNL1        0.0738
     17 N         142.5974  141.5723  167.0924 N.3     1  UNL1       -0.2726
     18 C         142.8381  140.1064  166.8839 C.3     1  UNL1        0.0721
     19 C         142.4943  139.4693  165.5703 C.3     1  UNL1        0.0174
     20 C         141.9098  140.2979  164.4650 C.3     1  UNL1        0.0029
     21 C         141.6690  141.7637  164.6734 C.3     1  UNL1        0.0174
     22 C         142.0129  142.4009  165.9871 C.3     1  UNL1        0.0721
     23 O         140.4096  140.3818  161.0108 O.2     1  UNL1       -0.2748
     24 C         139.4008  139.4370  160.4280 C.2     1  UNL1        0.2256
     25 N         138.4419  138.7152  161.3278 N.am    1  UNL1       -0.2839
     26 H         137.7798  138.0951  160.9453 H       1  UNL1        0.1549
     27 C         139.3508  139.2140  158.9455 C.3     1  UNL1        0.0768
     28 C         139.9225  137.9588  158.3562 C.3     1  UNL1        0.0091
     29 C         139.8725  137.7359  156.8737 C.3     1  UNL1        0.0005
     30 C         139.2508  138.7682  155.9805 C.3     1  UNL1        0.0000
     31 C         138.6791  140.0235  156.5699 C.3     1  UNL1        0.0005
     32 C         138.7291  140.2464  158.0523 C.3     1  UNL1        0.0091
@<TRIPOS>BOND
     1    23    24    2
     2    24    25   am
     3    25     1    1
     4     1     2   ar
     5     2     3   ar
     6     3     4   ar
     7     4     7    1
     8     7     8   ar
     9     8     9   ar
    10     9    10   ar
    11    10    12    1
    12    12    14    1
    13    14    15    1
    14    15    16    1
    15    16    17    1
    16    17    18    1
    17    18    19    1
    18    19    20    1
    19    20    21    1
    20    21    22    1
    21    10    11   ar
    22     4     5   ar
    23     5     6   ar
    24    24    27    1
    25    27    28    1
    26    28    29    1
    27    29    30    1
    28    30    31    1
    29    31    32    1
    30     6     1   ar
    31    32    27    1
    32    11     7   ar
    33    22    17    1
    34    25    26    1
    35    12    13    1
@<TRIPOS>MOLECULE
*****
 32 35 0 0 0
SMALL
GASTEIGER

@<TRIPOS>ATOM
      1 C         142.2862  139.0806  169.7196 C.ar    1  UNL1        0.0503
      2 C         140.9851  139.7353  170.0777 C.ar    1  UNL1        0.0148
      3 C         140.2001  140.4668  169.0296 C.ar    1  UNL1        0.0060
      4 C         140.7162  140.5436  167.6233 C.ar    1  UNL1        0.0553
      5 C         142.0174  139.8888  167.2651 C.ar    1  UNL1        0.0060
      6 C         142.8023  139.1573  168.3133 C.ar    1  UNL1        0.0148
      7 C         139.9312  141.2751  166.5751 C.ar    1  UNL1        0.2512
      8 N         138.9982  140.6536  165.5784 N.ar    1  UNL1       -0.1058
      9 N         138.4317  141.7509  164.7269 N.ar    1  UNL1       -0.0923
     10 C         139.0146  143.0505  165.1973 C.ar    1  UNL1        0.3086
     11 O         139.9413  142.7564  166.3396 O.2     1  UNL1       -0.4048
     12 N         138.7221  144.4062  164.6259 N.pl3   1  UNL1       -0.2871
     13 H         138.7545  145.2019  165.2048 H       1  UNL1        0.1512
     14 C         138.3801  144.5496  163.1724 C.3     1  UNL1        0.0925
     15 C         139.4376  144.9575  162.1899 C.3     1  UNL1        0.0386
     16 C         140.4663  143.9631  161.7393 C.3     1  UNL1        0.0738
     17 N         141.4154  143.3631  162.7337 N.3     1  UNL1       -0.2726
     18 C         142.2190  144.2529  163.6351 C.3     1  UNL1        0.0721
     19 C         143.1681  143.6528  164.6296 C.3     1  UNL1        0.0174
     20 C         143.3137  142.1628  164.7227 C.3     1  UNL1        0.0029
     21 C         142.5102  141.2729  163.8214 C.3     1  UNL1        0.0174
     22 C         141.5611  141.8731  162.8269 C.3     1  UNL1        0.0721
     23 O         144.1691  136.8848  168.9237 O.2     1  UNL1       -0.2748
     24 C         144.0127  137.2512  170.3698 C.2     1  UNL1        0.2256
     25 N         143.0712  138.3491  170.7678 N.am    1  UNL1       -0.2839
     26 H         142.9686  138.5895  171.7169 H       1  UNL1        0.1549
     27 C         144.7977  136.5197  171.4180 C.3     1  UNL1        0.0768
     28 C         145.7341  137.2729  172.3157 C.3     1  UNL1        0.0091
     29 C         146.5191  136.5413  173.3638 C.3     1  UNL1        0.0005
     30 C         146.3677  135.0566  173.5143 C.3     1  UNL1        0.0000
     31 C         145.4313  134.3034  172.6166 C.3     1  UNL1        0.0005
     32 C         144.6464  135.0349  171.5685 C.3     1  UNL1        0.0091
@<TRIPOS>BOND
     1    23    24    2
     2    24    25   am
     3    25     1    1
     4     1     2   ar
     5     2     3   ar
     6     3     4   ar
     7     4     7    1
     8     7     8   ar
     9     8     9   ar
    10     9    10   ar
    11    10    12    1
    12    12    14    1
    13    14    15    1
    14    15    16    1
    15    16    17    1
    16    17    18    1
    17    18    19    1
    18    19    20    1
    19    20    21    1
    20    21    22    1
    21    10    11   ar
    22     4     5   ar
    23     5     6   ar
    24    24    27    1
    25    27    28    1
    26    28    29    1
    27    29    30    1
    28    30    31    1
    29    31    32    1
    30     6     1   ar
    31    32    27    1
    32    11     7   ar
    33    22    17    1
    34    25    26    1
    35    12    13    1
@<TRIPOS>MOLECULE
*****
 32 35 0 0 0
SMALL
GASTEIGER

@<TRIPOS>ATOM
      1 C         142.6577  138.9031  164.0335 C.ar    1  UNL1        0.0503
      2 C         141.8049  137.9800  163.2147 C.ar    1  UNL1        0.0148
      3 C         141.9634  137.9375  161.7237 C.ar    1  UNL1        0.0060
      4 C         142.9748  138.8182  161.0516 C.ar    1  UNL1        0.0553
      5 C         143.8275  139.7413  161.8705 C.ar    1  UNL1        0.0060
      6 C         143.6690  139.7837  163.3614 C.ar    1  UNL1        0.0148
      7 C         143.1333  138.7756  159.5606 C.ar    1  UNL1        0.2512
      8 N         144.0832  139.6075  158.7508 N.ar    1  UNL1       -0.1058
      9 N         143.9068  139.2398  157.3074 N.ar    1  UNL1       -0.0923
     10 C         142.8477  138.1807  157.2250 C.ar    1  UNL1        0.3086
     11 O         142.3697  137.8938  158.6175 O.2     1  UNL1       -0.4048
     12 N         142.3535  137.5237  155.9703 N.pl3   1  UNL1       -0.2871
     13 H         142.5840  137.9040  155.0919 H       1  UNL1        0.1512
     14 C         141.5082  136.2874  156.0539 C.3     1  UNL1        0.0925
     15 C         142.1024  134.9491  155.7284 C.3     1  UNL1        0.0386
     16 C         143.5200  134.6445  156.1124 C.3     1  UNL1        0.0738
     17 N         143.9465  133.2248  156.3413 N.3     1  UNL1       -0.2726
     18 C         144.5719  132.8306  157.6465 C.3     1  UNL1        0.0721
     19 C         144.9984  131.4109  157.8753 C.3     1  UNL1        0.0174
     20 C         144.7995  130.3853  156.7990 C.3     1  UNL1        0.0029
     21 C         144.1742  130.7794  155.4938 C.3     1  UNL1        0.0174
     22 C         143.7477  132.1992  155.2649 C.3     1  UNL1        0.0721
     23 O         140.6217  140.7240  165.2743 O.2     1  UNL1       -0.2748
     24 C         141.4812  139.8560  166.1449 C.2     1  UNL1        0.2256
     25 N         142.4992  138.9456  165.5246 N.am    1  UNL1       -0.2839
     26 H         143.0633  138.3760  166.0960 H       1  UNL1        0.1549
     27 C         141.3227  139.8986  167.6360 C.3     1  UNL1        0.0768
     28 C         139.9931  140.2420  168.2393 C.3     1  UNL1        0.0091
     29 C         139.8346  140.2846  169.7303 C.3     1  UNL1        0.0005
     30 C         141.0058  139.9836  170.6179 C.3     1  UNL1        0.0000
     31 C         142.3354  139.6401  170.0145 C.3     1  UNL1        0.0005
     32 C         142.4938  139.5976  168.5236 C.3     1  UNL1        0.0091
@<TRIPOS>BOND
     1    23    24    2
     2    24    25   am
     3    25     1    1
     4     1     2   ar
     5     2     3   ar
     6     3     4   ar
     7     4     7    1
     8     7     8   ar
     9     8     9   ar
    10     9    10   ar
    11    10    12    1
    12    12    14    1
    13    14    15    1
    14    15    16    1
    15    16    17    1
    16    17    18    1
    17    18    19    1
    18    19    20    1
    19    20    21    1
    20    21    22    1
    21    10    11   ar
    22     4     5   ar
    23     5     6   ar
    24    24    27    1
    25    27    28    1
    26    28    29    1
    27    29    30    1
    28    30    31    1
    29    31    32    1
    30     6     1   ar
    31    32    27    1
    32    11     7   ar
    33    22    17    1
    34    25    26    1
    35    12    13    1
@<TRIPOS>MOLECULE
*****
 32 35 0 0 0
SMALL
GASTEIGER

@<TRIPOS>ATOM
      1 C         140.1107  144.1466  164.4249 C.ar    1  UNL1        0.0503
      2 C         141.4619  144.6290  163.9876 C.ar    1  UNL1        0.0148
      3 C         141.6939  145.0137  162.5564 C.ar    1  UNL1        0.0060
      4 C         140.5746  144.9159  161.5627 C.ar    1  UNL1        0.0553
      5 C         139.2233  144.4335  162.0000 C.ar    1  UNL1        0.0060
      6 C         138.9914  144.0489  163.4312 C.ar    1  UNL1        0.0148
      7 C         140.8066  145.3006  160.1314 C.ar    1  UNL1        0.2512
      8 N         142.0923  145.1465  159.3744 N.ar    1  UNL1       -0.1058
      9 N         141.8740  145.6575  157.9811 N.ar    1  UNL1       -0.0923
     10 C         140.4533  146.1275  157.8771 C.ar    1  UNL1        0.3086
     11 O         139.7936  145.9069  159.2061 O.2     1  UNL1       -0.4048
     12 N         139.8059  146.7150  156.6582 N.pl3   1  UNL1       -0.2871
     13 H         139.3246  147.5715  156.7208 H       1  UNL1        0.1512
     14 C         139.8920  145.9975  155.3438 C.3     1  UNL1        0.0925
     15 C         139.0609  144.7723  155.1023 C.3     1  UNL1        0.0386
     16 C         139.6436  143.4113  155.3435 C.3     1  UNL1        0.0738
     17 N         139.7108  142.8604  156.7369 N.3     1  UNL1       -0.2726
     18 C         138.4937  142.8864  157.6133 C.3     1  UNL1        0.0721
     19 C         138.5609  142.3355  159.0068 C.3     1  UNL1        0.0174
     20 C         139.8452  141.7585  159.5241 C.3     1  UNL1        0.0029
     21 C         141.0623  141.7325  158.6478 C.3     1  UNL1        0.0174
     22 C         140.9951  142.2834  157.2542 C.3     1  UNL1        0.0721
     23 O         141.4055  141.6830  165.5449 O.2     1  UNL1       -0.2748
     24 C         140.5261  142.5302  166.4161 C.2     1  UNL1        0.2256
     25 N         139.8787  143.7620  165.8561 N.am    1  UNL1       -0.2839
     26 H         139.3015  144.3180  166.4279 H       1  UNL1        0.1549
     27 C         140.2941  142.1455  167.8473 C.3     1  UNL1        0.0768
     28 C         140.0234  140.7141  168.2048 C.3     1  UNL1        0.0091
     29 C         139.7914  140.3295  169.6359 C.3     1  UNL1        0.0005
     30 C         139.8301  141.3763  170.7096 C.3     1  UNL1        0.0000
     31 C         140.1008  142.8077  170.3521 C.3     1  UNL1        0.0005
     32 C         140.3327  143.1923  168.9210 C.3     1  UNL1        0.0091
@<TRIPOS>BOND
     1    23    24    2
     2    24    25   am
     3    25     1    1
     4     1     2   ar
     5     2     3   ar
     6     3     4   ar
     7     4     7    1
     8     7     8   ar
     9     8     9   ar
    10     9    10   ar
    11    10    12    1
    12    12    14    1
    13    14    15    1
    14    15    16    1
    15    16    17    1
    16    17    18    1
    17    18    19    1
    18    19    20    1
    19    20    21    1
    20    21    22    1
    21    10    11   ar
    22     4     5   ar
    23     5     6   ar
    24    24    27    1
    25    27    28    1
    26    28    29    1
    27    29    30    1
    28    30    31    1
    29    31    32    1
    30     6     1   ar
    31    32    27    1
    32    11     7   ar
    33    22    17    1
    34    25    26    1
    35    12    13    1
@<TRIPOS>MOLECULE
*****
 32 35 0 0 0
SMALL
GASTEIGER

@<TRIPOS>ATOM
      1 C         142.4436  138.1338  158.1114 C.ar    1  UNL1        0.0503
      2 C         142.4359  139.5890  157.7479 C.ar    1  UNL1        0.0148
      3 C         142.9502  140.6079  158.7211 C.ar    1  UNL1        0.0060
      4 C         143.4722  140.1716  160.0579 C.ar    1  UNL1        0.0553
      5 C         143.4799  138.7163  160.4215 C.ar    1  UNL1        0.0060
      6 C         142.9656  137.6975  159.4482 C.ar    1  UNL1        0.0148
      7 C         143.9865  141.1905  161.0312 C.ar    1  UNL1        0.2512
      8 N         144.9572  140.9340  162.1458 N.ar    1  UNL1       -0.1058
      9 N         145.1911  142.2298  162.8642 N.ar    1  UNL1       -0.0923
     10 C         144.3650  143.2872  162.1937 C.ar    1  UNL1        0.3086
     11 O         143.6206  142.6449  161.0609 O.2     1  UNL1       -0.4048
     12 N         144.2955  144.7331  162.5870 N.pl3   1  UNL1       -0.2871
     13 H         144.7723  145.4111  162.0559 H       1  UNL1        0.1512
     14 C         143.4996  145.1458  163.7896 C.3     1  UNL1        0.0925
     15 C         142.0019  145.0676  163.7607 C.3     1  UNL1        0.0386
     16 C         141.2952  143.9527  164.4731 C.3     1  UNL1        0.0738
     17 N         141.1137  142.6264  163.7965 N.3     1  UNL1       -0.2726
     18 C         140.2717  142.5245  162.5593 C.3     1  UNL1        0.0721
     19 C         140.0902  141.1982  161.8827 C.3     1  UNL1        0.0174
     20 C         140.7507  139.9737  162.4433 C.3     1  UNL1        0.0029
     21 C         141.5927  140.0755  163.6805 C.3     1  UNL1        0.0174
     22 C         141.7742  141.4019  164.3571 C.3     1  UNL1        0.0721
     23 O         144.2745  136.9924  156.0269 O.2     1  UNL1       -0.2748
     24 C         142.8447  136.5442  156.0959 C.2     1  UNL1        0.2256
     25 N         141.9293  137.1148  157.1381 N.am    1  UNL1       -0.2839
     26 H         140.9909  136.8206  157.1834 H       1  UNL1        0.1549
     27 C         142.3304  135.5252  155.1226 C.3     1  UNL1        0.0768
     28 C         142.1854  135.8796  153.6723 C.3     1  UNL1        0.0091
     29 C         141.6711  134.8606  152.6991 C.3     1  UNL1        0.0005
     30 C         141.3018  133.4873  153.1762 C.3     1  UNL1        0.0000
     31 C         141.4467  133.1329  154.6264 C.3     1  UNL1        0.0005
     32 C         141.9610  134.1519  155.5996 C.3     1  UNL1        0.0091
@<TRIPOS>BOND
     1    23    24    2
     2    24    25   am
     3    25     1    1
     4     1     2   ar
     5     2     3   ar
     6     3     4   ar
     7     4     7    1
     8     7     8   ar
     9     8     9   ar
    10     9    10   ar
    11    10    12    1
    12    12    14    1
    13    14    15    1
    14    15    16    1
    15    16    17    1
    16    17    18    1
    17    18    19    1
    18    19    20    1
    19    20    21    1
    20    21    22    1
    21    10    11   ar
    22     4     5   ar
    23     5     6   ar
    24    24    27    1
    25    27    28    1
    26    28    29    1
    27    29    30    1
    28    30    31    1
    29    31    32    1
    30     6     1   ar
    31    32    27    1
    32    11     7   ar
    33    22    17    1
    34    25    26    1
    35    12    13    1
@<TRIPOS>MOLECULE
*****
 32 35 0 0 0
SMALL
GASTEIGER

@<TRIPOS>ATOM
      1 C         142.6550  138.5225  158.0516 C.ar    1  UNL1        0.0503
      2 C         143.4593  139.6231  157.4259 C.ar    1  UNL1        0.0148
      3 C         143.1766  141.0530  157.7799 C.ar    1  UNL1        0.0060
      4 C         142.0896  141.3823  158.7597 C.ar    1  UNL1        0.0553
      5 C         141.2853  140.2816  159.3855 C.ar    1  UNL1        0.0060
      6 C         141.5680  138.8517  159.0314 C.ar    1  UNL1        0.0148
      7 C         141.8070  142.8123  159.1138 C.ar    1  UNL1        0.2512
      8 N         142.7259  143.9755  158.8846 N.ar    1  UNL1       -0.1058
      9 N         142.0427  145.2122  159.3883 N.ar    1  UNL1       -0.0923
     10 C         140.7015  144.8133  159.9289 C.ar    1  UNL1        0.3086
     11 O         140.5558  143.3301  159.7592 O.2     1  UNL1       -0.4048
     12 N         139.6845  145.7357  160.5330 N.pl3   1  UNL1       -0.2871
     13 H         138.8966  146.0099  160.0103 H       1  UNL1        0.1512
     14 C         139.8680  146.2402  161.9336 C.3     1  UNL1        0.0925
     15 C         140.1585  145.2767  163.0459 C.3     1  UNL1        0.0386
     16 C         141.5681  145.0820  163.5205 C.3     1  UNL1        0.0738
     17 N         142.3823  143.9341  163.0017 N.3     1  UNL1       -0.2726
     18 C         143.7542  144.1781  162.4462 C.3     1  UNL1        0.0721
     19 C         144.5684  143.0302  161.9274 C.3     1  UNL1        0.0174
     20 C         144.0108  141.6381  161.9641 C.3     1  UNL1        0.0029
     21 C         142.6390  141.3941  162.5195 C.3     1  UNL1        0.0174
     22 C         141.8248  142.5421  163.0384 C.3     1  UNL1        0.0721
     23 O         141.2298  137.2383  155.7451 O.2     1  UNL1       -0.2748
     24 C         142.2251  136.4504  156.5443 C.2     1  UNL1        0.2256
     25 N         142.9376  137.0925  157.6975 N.am    1  UNL1       -0.2839
     26 H         143.5908  136.5753  158.2221 H       1  UNL1        0.1549
     27 C         142.5077  135.0204  156.1902 C.3     1  UNL1        0.0768
     28 C         141.4937  134.2227  155.4251 C.3     1  UNL1        0.0091
     29 C         141.7764  132.7928  155.0711 C.3     1  UNL1        0.0005
     30 C         143.0731  132.1606  155.4822 C.3     1  UNL1        0.0000
     31 C         144.0870  132.9583  156.2473 C.3     1  UNL1        0.0005
     32 C         143.8044  134.3882  156.6014 C.3     1  UNL1        0.0091
@<TRIPOS>BOND
     1    23    24    2
     2    24    25   am
     3    25     1    1
     4     1     2   ar
     5     2     3   ar
     6     3     4   ar
     7     4     7    1
     8     7     8   ar
     9     8     9   ar
    10     9    10   ar
    11    10    12    1
    12    12    14    1
    13    14    15    1
    14    15    16    1
    15    16    17    1
    16    17    18    1
    17    18    19    1
    18    19    20    1
    19    20    21    1
    20    21    22    1
    21    10    11   ar
    22     4     5   ar
    23     5     6   ar
    24    24    27    1
    25    27    28    1
    26    28    29    1
    27    29    30    1
    28    30    31    1
    29    31    32    1
    30     6     1   ar
    31    32    27    1
    32    11     7   ar
    33    22    17    1
    34    25    26    1
    35    12    13    1
