@<TRIPOS>MOLECULE
*****
 24 26 0 0 0
SMALL
GASTEIGER

@<TRIPOS>ATOM
      1 O         137.5979  138.9242  166.3755 O.2     1  UNL1       -0.2749
      2 C         138.4083  139.9421  165.6291 C.2     1  UNL1        0.2254
      3 N         139.5529  140.6340  166.3082 N.am    1  UNL1       -0.2757
      4 C         140.3634  141.6519  165.5617 C.3     1  UNL1        0.0927
      5 C         140.1479  143.1362  165.5802 C.3     1  UNL1        0.0383
      6 C         141.1829  143.7659  164.6956 C.3     1  UNL1        0.0704
      7 N         142.0380  142.6706  164.1304 N.3     1  UNL1       -0.2960
      8 C         141.5315  141.3641  164.6657 C.3     1  UNL1        0.0887
      9 H         143.0082  142.8079  164.4136 H       1  UNL1        0.1233
     10 C         138.0741  140.2681  164.2035 C.3     1  UNL1        0.0767
     11 C         137.4104  141.4183  163.5061 C.3     1  UNL1        0.0091
     12 C         137.6015  140.7292  162.1876 C.3     1  UNL1        0.0010
     13 C         138.2652  139.5790  162.8851 C.3     1  UNL1        0.0091
     14 C         139.8871  140.3080  167.7336 C.3     1  UNL1        0.1201
     15 C         140.7952  141.2098  168.5162 C.ar    1  UNL1        0.0016
     16 C         140.2610  142.4791  169.1109 C.ar    1  UNL1       -0.0027
     17 C         141.1690  143.3808  169.8934 C.ar    1  UNL1       -0.0003
     18 C         142.6111  143.0134  170.0812 C.ar    1  UNL1       -0.0001
     19 C         143.1452  141.7441  169.4865 C.ar    1  UNL1        0.0036
     20 C         142.2373  140.8423  168.7040 C.ar    1  UNL1        0.0691
     21 C         142.7714  139.5731  168.1092 C.3     1  UNL1        0.4183
     22 F         143.3055  138.3039  167.5145 F       1  UNL1       -0.1659
     23 F         142.3849  138.8279  169.3523 F       1  UNL1       -0.1659
     24 F         143.1579  140.3183  166.8661 F       1  UNL1       -0.1659
@<TRIPOS>BOND
     1     1     2    2
     2     2    10    1
     3    10    11    1
     4    11    12    1
     5    12    13    1
     6     2     3   am
     7     3    14    1
     8    14    15    1
     9    15    16   ar
    10    16    17   ar
    11    17    18   ar
    12    18    19   ar
    13    19    20   ar
    14    20    21    1
    15    21    22    1
    16    21    23    1
    17    21    24    1
    18     4     3    1
    19     4     5    1
    20     5     6    1
    21     6     7    1
    22     7     8    1
    23    13    10    1
    24    20    15   ar
    25     8     4    1
    26     7     9    1
@<TRIPOS>MOLECULE
*****
 24 26 0 0 0
SMALL
GASTEIGER

@<TRIPOS>ATOM
      1 O         142.9627  139.5481  169.5213 O.2     1  UNL1       -0.2749
      2 C         142.1381  140.4699  168.6726 C.2     1  UNL1        0.2254
      3 N         142.1899  140.3601  167.1775 N.am    1  UNL1       -0.2757
      4 C         141.3653  141.2820  166.3288 C.3     1  UNL1        0.0927
      5 C         139.9424  141.0582  165.9101 C.3     1  UNL1        0.0383
      6 C         139.5164  142.2274  165.0724 C.3     1  UNL1        0.0704
      7 N         140.6761  143.1737  164.9735 N.3     1  UNL1       -0.2960
      8 C         141.8187  142.5894  165.7500 C.3     1  UNL1        0.0887
      9 H         140.4183  144.0793  165.3656 H       1  UNL1        0.1233
     10 C         141.2617  141.5014  169.3190 C.3     1  UNL1        0.0767
     11 C         141.4248  142.9427  169.7014 C.3     1  UNL1        0.0091
     12 C         140.0223  142.9603  170.2331 C.3     1  UNL1        0.0010
     13 C         139.8593  141.5190  169.8507 C.3     1  UNL1        0.0091
     14 C         143.0663  139.3286  166.5311 C.3     1  UNL1        0.1201
     15 C         142.7135  138.7864  165.1777 C.ar    1  UNL1        0.0016
     16 C         141.5471  137.8559  165.0233 C.ar    1  UNL1       -0.0027
     17 C         141.1943  137.3137  163.6701 C.ar    1  UNL1       -0.0003
     18 C         142.0079  137.7018  162.4712 C.ar    1  UNL1       -0.0001
     19 C         143.1743  138.6322  162.6256 C.ar    1  UNL1        0.0036
     20 C         143.5271  139.1745  163.9789 C.ar    1  UNL1        0.0691
     21 C         144.6935  140.1049  164.1333 C.3     1  UNL1        0.4183
     22 F         145.8599  141.0353  164.2877 F       1  UNL1       -0.1659
     23 F         143.8319  141.2560  163.7060 F       1  UNL1       -0.1659
     24 F         145.5552  138.9538  164.5605 F       1  UNL1       -0.1659
@<TRIPOS>BOND
     1     1     2    2
     2     2    10    1
     3    10    11    1
     4    11    12    1
     5    12    13    1
     6     2     3   am
     7     3    14    1
     8    14    15    1
     9    15    16   ar
    10    16    17   ar
    11    17    18   ar
    12    18    19   ar
    13    19    20   ar
    14    20    21    1
    15    21    22    1
    16    21    23    1
    17    21    24    1
    18     4     3    1
    19     4     5    1
    20     5     6    1
    21     6     7    1
    22     7     8    1
    23    13    10    1
    24    20    15   ar
    25     8     4    1
    26     7     9    1
@<TRIPOS>MOLECULE
*****
 24 26 0 0 0
SMALL
GASTEIGER

@<TRIPOS>ATOM
      1 O         140.4392  140.6628  167.9726 O.2     1  UNL1       -0.2749
      2 C         139.6528  140.4910  166.7069 C.2     1  UNL1        0.2254
      3 N         139.5381  141.6279  165.7351 N.am    1  UNL1       -0.2757
      4 C         138.7517  141.4561  164.4693 C.3     1  UNL1        0.0927
      5 C         139.2824  140.9389  163.1651 C.3     1  UNL1        0.0383
      6 C         138.1553  140.9345  162.1752 C.3     1  UNL1        0.0704
      7 N         136.9281  141.4490  162.8678 N.3     1  UNL1       -0.2960
      8 C         137.2968  141.7713  164.2856 C.3     1  UNL1        0.0887
      9 H         136.1982  140.7366  162.8533 H       1  UNL1        0.1233
     10 C         138.9811  139.1824  166.4129 C.3     1  UNL1        0.0767
     11 C         137.7407  138.4939  166.9002 C.3     1  UNL1        0.0091
     12 C         138.0311  137.3318  165.9973 C.3     1  UNL1        0.0010
     13 C         139.2715  138.0204  165.5101 C.3     1  UNL1        0.0091
     14 C         140.2098  142.9365  166.0290 C.3     1  UNL1        0.1201
     15 C         141.1836  143.5170  165.0467 C.ar    1  UNL1        0.0016
     16 C         140.7784  144.6755  164.1844 C.ar    1  UNL1       -0.0027
     17 C         141.7521  145.2561  163.2022 C.ar    1  UNL1       -0.0003
     18 C         143.1310  144.6780  163.0822 C.ar    1  UNL1       -0.0001
     19 C         143.5362  143.5195  163.9446 C.ar    1  UNL1        0.0036
     20 C         142.5625  142.9390  164.9268 C.ar    1  UNL1        0.0691
     21 C         142.9677  141.7805  165.7891 C.3     1  UNL1        0.4183
     22 F         143.3730  140.6219  166.6514 F       1  UNL1       -0.1659
     23 F         143.4761  142.7332  166.8302 F       1  UNL1       -0.1659
     24 F         142.4593  140.8277  164.7480 F       1  UNL1       -0.1659
@<TRIPOS>BOND
     1     1     2    2
     2     2    10    1
     3    10    11    1
     4    11    12    1
     5    12    13    1
     6     2     3   am
     7     3    14    1
     8    14    15    1
     9    15    16   ar
    10    16    17   ar
    11    17    18   ar
    12    18    19   ar
    13    19    20   ar
    14    20    21    1
    15    21    22    1
    16    21    23    1
    17    21    24    1
    18     4     3    1
    19     4     5    1
    20     5     6    1
    21     6     7    1
    22     7     8    1
    23    13    10    1
    24    20    15   ar
    25     8     4    1
    26     7     9    1
@<TRIPOS>MOLECULE
*****
 24 26 0 0 0
SMALL
GASTEIGER

@<TRIPOS>ATOM
      1 O         139.3432  140.2564  162.7031 O.2     1  UNL1       -0.2749
      2 C         139.9631  139.8388  164.0036 C.2     1  UNL1        0.2254
      3 N         141.3747  140.2332  164.3224 N.am    1  UNL1       -0.2757
      4 C         141.9946  139.8156  165.6230 C.3     1  UNL1        0.0927
      5 C         141.8032  140.4919  166.9481 C.3     1  UNL1        0.0383
      6 C         142.6050  139.7427  167.9710 C.3     1  UNL1        0.0704
      7 N         143.2917  138.6034  167.2778 N.3     1  UNL1       -0.2960
      8 C         142.9145  138.6484  165.8268 C.3     1  UNL1        0.0887
      9 H         142.9915  137.7182  167.6862 H       1  UNL1        0.1233
     10 C         139.1712  139.0268  164.9854 C.3     1  UNL1        0.0767
     11 C         138.9738  137.5609  165.2342 C.3     1  UNL1        0.0091
     12 C         138.0515  137.8785  166.3737 C.3     1  UNL1        0.0010
     13 C         138.2489  139.3445  166.1247 C.3     1  UNL1        0.0091
     14 C         142.1666  141.0451  163.3407 C.3     1  UNL1        0.1201
     15 C         142.2795  142.5308  163.5146 C.ar    1  UNL1        0.0016
     16 C         141.0671  143.3991  163.3528 C.ar    1  UNL1       -0.0027
     17 C         141.1800  144.8847  163.5266 C.ar    1  UNL1       -0.0003
     18 C         142.5053  145.5019  163.8622 C.ar    1  UNL1       -0.0001
     19 C         143.7177  144.6336  164.0240 C.ar    1  UNL1        0.0036
     20 C         143.6048  143.1480  163.8501 C.ar    1  UNL1        0.0691
     21 C         144.8171  142.2797  164.0119 C.3     1  UNL1        0.4183
     22 F         146.0295  141.4113  164.1737 F       1  UNL1       -0.1659
     23 F         144.4516  142.0365  165.4462 F       1  UNL1       -0.1659
     24 F         145.1826  142.5228  162.5776 F       1  UNL1       -0.1659
@<TRIPOS>BOND
     1     1     2    2
     2     2    10    1
     3    10    11    1
     4    11    12    1
     5    12    13    1
     6     2     3   am
     7     3    14    1
     8    14    15    1
     9    15    16   ar
    10    16    17   ar
    11    17    18   ar
    12    18    19   ar
    13    19    20   ar
    14    20    21    1
    15    21    22    1
    16    21    23    1
    17    21    24    1
    18     4     3    1
    19     4     5    1
    20     5     6    1
    21     6     7    1
    22     7     8    1
    23    13    10    1
    24    20    15   ar
    25     8     4    1
    26     7     9    1
@<TRIPOS>MOLECULE
*****
 24 26 0 0 0
SMALL
GASTEIGER

@<TRIPOS>ATOM
      1 O         141.7999  138.3025  164.9660 O.2     1  UNL1       -0.2749
      2 C         140.5191  139.0670  164.8075 C.2     1  UNL1        0.2254
      3 N         140.3933  140.1047  163.7318 N.am    1  UNL1       -0.2757
      4 C         139.1124  140.8693  163.5734 C.3     1  UNL1        0.0927
      5 C         138.8408  142.2510  164.0901 C.3     1  UNL1        0.0383
      6 C         137.4389  142.6220  163.7066 C.3     1  UNL1        0.0704
      7 N         136.8442  141.4695  162.9528 N.3     1  UNL1       -0.2960
      8 C         137.8785  140.3863  162.8705 C.3     1  UNL1        0.0887
      9 H         136.5810  141.7689  162.0139 H       1  UNL1        0.1233
     10 C         139.3641  138.7937  165.7249 C.3     1  UNL1        0.0767
     11 C         138.7964  139.4602  166.9428 C.3     1  UNL1        0.0091
     12 C         137.7308  138.4074  167.0222 C.3     1  UNL1        0.0010
     13 C         138.2987  137.7410  165.8042 C.3     1  UNL1        0.0091
     14 C         141.5482  140.3780  162.8145 C.3     1  UNL1        0.1201
     15 C         142.7768  141.0607  163.3383 C.ar    1  UNL1        0.0016
     16 C         142.6541  142.1202  164.3930 C.ar    1  UNL1       -0.0027
     17 C         143.8826  142.8030  164.9168 C.ar    1  UNL1       -0.0003
     18 C         145.2340  142.4262  164.3860 C.ar    1  UNL1       -0.0001
     19 C         145.3568  141.3667  163.3313 C.ar    1  UNL1        0.0036
     20 C         144.1282  140.6840  162.8075 C.ar    1  UNL1        0.0691
     21 C         144.2510  139.6244  161.7528 C.3     1  UNL1        0.4183
     22 F         144.3737  138.5649  160.6981 F       1  UNL1       -0.1659
     23 F         144.3467  138.5740  162.8192 F       1  UNL1       -0.1659
     24 F         144.1552  140.6749  160.6863 F       1  UNL1       -0.1659
@<TRIPOS>BOND
     1     1     2    2
     2     2    10    1
     3    10    11    1
     4    11    12    1
     5    12    13    1
     6     2     3   am
     7     3    14    1
     8    14    15    1
     9    15    16   ar
    10    16    17   ar
    11    17    18   ar
    12    18    19   ar
    13    19    20   ar
    14    20    21    1
    15    21    22    1
    16    21    23    1
    17    21    24    1
    18     4     3    1
    19     4     5    1
    20     5     6    1
    21     6     7    1
    22     7     8    1
    23    13    10    1
    24    20    15   ar
    25     8     4    1
    26     7     9    1
@<TRIPOS>MOLECULE
*****
 24 26 0 0 0
SMALL
GASTEIGER

@<TRIPOS>ATOM
      1 O         143.4392  142.5617  166.5921 O.2     1  UNL1       -0.2749
      2 C         142.4946  141.4353  166.2937 C.2     1  UNL1        0.2254
      3 N         141.0682  141.7280  165.9336 N.am    1  UNL1       -0.2757
      4 C         140.1237  140.6015  165.6353 C.3     1  UNL1        0.0927
      5 C         139.2567  139.8907  166.6317 C.3     1  UNL1        0.0383
      6 C         138.4775  138.8379  165.9005 C.3     1  UNL1        0.0704
      7 N         138.8630  138.8982  164.4520 N.3     1  UNL1       -0.2960
      8 C         139.8804  139.9882  164.2882 C.3     1  UNL1        0.0887
      9 H         138.0414  139.1033  163.8834 H       1  UNL1        0.1233
     10 C         142.9765  140.0161  166.3555 C.3     1  UNL1        0.0767
     11 C         143.6544  139.0835  165.3960 C.3     1  UNL1        0.0091
     12 C         143.6580  138.0091  166.4429 C.3     1  UNL1        0.0010
     13 C         142.9801  138.9419  167.4023 C.3     1  UNL1        0.0091
     14 C         140.5864  143.1471  165.8718 C.3     1  UNL1        0.1201
     15 C         140.6397  143.9016  164.5764 C.ar    1  UNL1        0.0016
     16 C         141.9262  143.9850  163.8095 C.ar    1  UNL1       -0.0027
     17 C         141.9796  144.7394  162.5141 C.ar    1  UNL1       -0.0003
     18 C         140.7466  145.4105  161.9857 C.ar    1  UNL1       -0.0001
     19 C         139.4601  145.3271  162.7526 C.ar    1  UNL1        0.0036
     20 C         139.4067  144.5727  164.0479 C.ar    1  UNL1        0.0691
     21 C         138.1203  144.4893  164.8149 C.3     1  UNL1        0.4183
     22 F         136.8339  144.4060  165.5818 F       1  UNL1       -0.1659
     23 F         138.6036  145.5645  165.7425 F       1  UNL1       -0.1659
     24 F         137.6370  143.4142  163.8873 F       1  UNL1       -0.1659
@<TRIPOS>BOND
     1     1     2    2
     2     2    10    1
     3    10    11    1
     4    11    12    1
     5    12    13    1
     6     2     3   am
     7     3    14    1
     8    14    15    1
     9    15    16   ar
    10    16    17   ar
    11    17    18   ar
    12    18    19   ar
    13    19    20   ar
    14    20    21    1
    15    21    22    1
    16    21    23    1
    17    21    24    1
    18     4     3    1
    19     4     5    1
    20     5     6    1
    21     6     7    1
    22     7     8    1
    23    13    10    1
    24    20    15   ar
    25     8     4    1
    26     7     9    1
@<TRIPOS>MOLECULE
*****
 24 26 0 0 0
SMALL
GASTEIGER

@<TRIPOS>ATOM
      1 O         140.0799  140.8843  167.7891 O.2     1  UNL1       -0.2749
      2 C         139.4639  140.5483  166.4634 C.2     1  UNL1        0.2254
      3 N         139.3736  141.5939  165.3917 N.am    1  UNL1       -0.2757
      4 C         138.7575  141.2579  164.0660 C.3     1  UNL1        0.0927
      5 C         139.4692  140.6575  162.8899 C.3     1  UNL1        0.0383
      6 C         138.4731  140.4917  161.7806 C.3     1  UNL1        0.0704
      7 N         137.1459  140.9897  162.2712 N.3     1  UNL1       -0.2960
      8 C         137.3217  141.4632  163.6836 C.3     1  UNL1        0.0887
      9 H         136.4606  140.2348  162.2419 H       1  UNL1        0.1233
     10 C         138.9380  139.1666  166.2093 C.3     1  UNL1        0.0767
     11 C         139.3560  138.0153  165.3434 C.3     1  UNL1        0.0091
     12 C         138.1944  137.2126  165.8500 C.3     1  UNL1        0.0010
     13 C         137.7765  138.3640  166.7158 C.3     1  UNL1        0.0091
     14 C         139.8994  142.9756  165.6457 C.3     1  UNL1        0.1201
     15 C         141.0151  143.5200  164.8038 C.ar    1  UNL1        0.0016
     16 C         142.4405  143.2221  165.1637 C.ar    1  UNL1       -0.0027
     17 C         143.5562  143.7665  164.3218 C.ar    1  UNL1       -0.0003
     18 C         143.2465  144.6089  163.1200 C.ar    1  UNL1       -0.0001
     19 C         141.8211  144.9068  162.7600 C.ar    1  UNL1        0.0036
     20 C         140.7054  144.3624  163.6019 C.ar    1  UNL1        0.0691
     21 C         139.2801  144.6603  163.2420 C.3     1  UNL1        0.4183
     22 F         137.8547  144.9583  162.8820 F       1  UNL1       -0.1659
     23 F         139.4295  143.8562  161.9846 F       1  UNL1       -0.1659
     24 F         139.1306  145.4644  164.4994 F       1  UNL1       -0.1659
@<TRIPOS>BOND
     1     1     2    2
     2     2    10    1
     3    10    11    1
     4    11    12    1
     5    12    13    1
     6     2     3   am
     7     3    14    1
     8    14    15    1
     9    15    16   ar
    10    16    17   ar
    11    17    18   ar
    12    18    19   ar
    13    19    20   ar
    14    20    21    1
    15    21    22    1
    16    21    23    1
    17    21    24    1
    18     4     3    1
    19     4     5    1
    20     5     6    1
    21     6     7    1
    22     7     8    1
    23    13    10    1
    24    20    15   ar
    25     8     4    1
    26     7     9    1
@<TRIPOS>MOLECULE
*****
 24 26 0 0 0
SMALL
GASTEIGER

@<TRIPOS>ATOM
      1 O         142.1497  142.9794  165.2278 O.2     1  UNL1       -0.2749
      2 C         141.0355  142.8223  164.2359 C.2     1  UNL1        0.2254
      3 N         140.3519  141.4963  164.0796 N.am    1  UNL1       -0.2757
      4 C         139.2377  141.3392  163.0877 C.3     1  UNL1        0.0927
      5 C         139.3948  141.0647  161.6215 C.3     1  UNL1        0.0383
      6 C         138.0249  140.9849  161.0154 C.3     1  UNL1        0.0704
      7 N         137.0213  141.2101  162.1073 N.3     1  UNL1       -0.2960
      8 C         137.7708  141.4290  163.3880 C.3     1  UNL1        0.0887
      9 H         136.4166  140.3934  162.1954 H       1  UNL1        0.1233
     10 C         140.6048  143.9913  163.4003 C.3     1  UNL1        0.0767
     11 C         139.4475  144.9452  163.4273 C.3     1  UNL1        0.0091
     12 C         139.9956  145.6443  162.2187 C.3     1  UNL1        0.0010
     13 C         141.1529  144.6903  162.1918 C.3     1  UNL1        0.0091
     14 C         140.7826  140.3274  164.9152 C.3     1  UNL1        0.1201
     15 C         139.7545  139.4113  165.5101 C.ar    1  UNL1        0.0016
     16 C         138.9015  139.8814  166.6509 C.ar    1  UNL1       -0.0027
     17 C         137.8734  138.9655  167.2458 C.ar    1  UNL1       -0.0003
     18 C         137.6982  137.5794  166.6998 C.ar    1  UNL1       -0.0001
     19 C         138.5512  137.1093  165.5590 C.ar    1  UNL1        0.0036
     20 C         139.5793  138.0253  164.9641 C.ar    1  UNL1        0.0691
     21 C         140.4322  137.5552  163.8233 C.3     1  UNL1        0.4183
     22 F         141.2852  137.0851  162.6824 F       1  UNL1       -0.1659
     23 F         139.3701  137.9813  162.8536 F       1  UNL1       -0.1659
     24 F         141.4944  137.1291  164.7929 F       1  UNL1       -0.1659
@<TRIPOS>BOND
     1     1     2    2
     2     2    10    1
     3    10    11    1
     4    11    12    1
     5    12    13    1
     6     2     3   am
     7     3    14    1
     8    14    15    1
     9    15    16   ar
    10    16    17   ar
    11    17    18   ar
    12    18    19   ar
    13    19    20   ar
    14    20    21    1
    15    21    22    1
    16    21    23    1
    17    21    24    1
    18     4     3    1
    19     4     5    1
    20     5     6    1
    21     6     7    1
    22     7     8    1
    23    13    10    1
    24    20    15   ar
    25     8     4    1
    26     7     9    1
@<TRIPOS>MOLECULE
*****
 24 26 0 0 0
SMALL
GASTEIGER

@<TRIPOS>ATOM
      1 O         143.4181  142.5801  166.6610 O.2     1  UNL1       -0.2749
      2 C         142.4727  141.4503  166.3789 C.2     1  UNL1        0.2254
      3 N         141.0302  141.7356  166.0826 N.am    1  UNL1       -0.2757
      4 C         140.0847  140.6058  165.8005 C.3     1  UNL1        0.0927
      5 C         139.2276  139.9006  166.8095 C.3     1  UNL1        0.0383
      6 C         138.4435  138.8417  166.0924 C.3     1  UNL1        0.0704
      7 N         138.8162  138.8925  164.6402 N.3     1  UNL1       -0.2960
      8 C         139.8305  139.9827  164.4599 C.3     1  UNL1        0.0887
      9 H         137.9893  139.0924  164.0775 H       1  UNL1        0.1233
     10 C         142.9697  140.0350  166.3929 C.3     1  UNL1        0.0767
     11 C         143.6292  139.1326  165.3926 C.3     1  UNL1        0.0091
     12 C         143.6727  138.0337  166.4126 C.3     1  UNL1        0.0010
     13 C         143.0132  138.9362  167.4129 C.3     1  UNL1        0.0091
     14 C         140.5331  143.1508  166.0686 C.3     1  UNL1        0.1201
     15 C         139.8534  143.6949  164.8471 C.ar    1  UNL1        0.0016
     16 C         138.3576  143.6556  164.7410 C.ar    1  UNL1       -0.0027
     17 C         137.6779  144.1997  163.5196 C.ar    1  UNL1       -0.0003
     18 C         138.4938  144.7830  162.4043 C.ar    1  UNL1       -0.0001
     19 C         139.9895  144.8223  162.5104 C.ar    1  UNL1        0.0036
     20 C         140.6693  144.2782  163.7318 C.ar    1  UNL1        0.0691
     21 C         142.1650  144.3175  163.8380 C.3     1  UNL1        0.4183
     22 F         143.6608  144.3568  163.9441 F       1  UNL1       -0.1659
     23 F         142.0965  145.7513  164.2733 F       1  UNL1       -0.1659
     24 F         142.2336  142.8837  163.4026 F       1  UNL1       -0.1659
@<TRIPOS>BOND
     1     1     2    2
     2     2    10    1
     3    10    11    1
     4    11    12    1
     5    12    13    1
     6     2     3   am
     7     3    14    1
     8    14    15    1
     9    15    16   ar
    10    16    17   ar
    11    17    18   ar
    12    18    19   ar
    13    19    20   ar
    14    20    21    1
    15    21    22    1
    16    21    23    1
    17    21    24    1
    18     4     3    1
    19     4     5    1
    20     5     6    1
    21     6     7    1
    22     7     8    1
    23    13    10    1
    24    20    15   ar
    25     8     4    1
    26     7     9    1
