@<TRIPOS>MOLECULE
*****
 32 36 0 0 0
SMALL
GASTEIGER

@<TRIPOS>ATOM
      1 N         142.8858  138.9800  163.4701 N.3     1  UNL1       -0.2726
      2 C         144.0843  139.2866  162.6217 C.3     1  UNL1        0.0721
      3 C         144.7311  140.5265  163.1642 C.3     1  UNL1        0.0190
      4 C         143.9325  140.9861  164.3479 C.3     1  UNL1        0.0201
      5 C         144.7835  142.1821  164.6564 C.3     1  UNL1        0.0061
      6 C         143.5851  141.8754  165.5048 C.3     1  UNL1        0.0237
      7 C         142.7920  140.0303  164.5369 C.3     1  UNL1        0.0724
      8 C         142.6926  142.2118  166.6625 C.ar    1  UNL1       -0.0225
      9 C         141.2436  142.5205  166.4275 C.ar    1  UNL1       -0.0043
     10 C         140.3512  142.8568  167.5852 C.ar    1  UNL1        0.0035
     11 C         140.9077  142.8846  168.9779 C.ar    1  UNL1        0.0714
     12 C         142.3567  142.5759  169.2128 C.ar    1  UNL1        0.0035
     13 C         143.2491  142.2396  168.0551 C.ar    1  UNL1       -0.0043
     14 C         140.0152  143.2210  170.1356 C.3     1  UNL1        0.4186
     15 F         139.1227  143.5574  171.2934 F       1  UNL1       -0.1659
     16 F         139.5011  141.8119  170.1487 F       1  UNL1       -0.1659
     17 F         140.5293  144.6300  170.1225 F       1  UNL1       -0.1659
     18 C         141.9461  137.8256  163.2843 C.3     1  UNL1        0.0730
     19 C         141.1649  137.2992  164.4515 C.3     1  UNL1        0.0294
     20 C         139.7192  137.6654  164.6130 C.3     1  UNL1        0.0666
     21 S         139.0355  138.4985  163.5698 S.3     1  UNL1       -0.0756
     22 C         140.3934  140.8457  161.7540 C.3     1  UNL1        0.1340
     23 N         139.5004  141.0546  162.9410 N.ar    1  UNL1       -0.2868
     24 C         138.8763  139.9758  163.7756 C.ar    1  UNL1        0.1933
     25 N         138.0650  140.6335  164.8523 N.ar    1  UNL1       -0.1221
     26 N         138.1877  142.1189  164.6831 N.ar    1  UNL1       -0.1261
     27 C         139.0749  142.3792  163.5019 C.ar    1  UNL1        0.1908
     28 C         139.4675  143.7273  162.9742 C.ar    1  UNL1        0.1467
     29 N         138.5765  144.6757  162.2280 N.ar    1  UNL1       -0.2337
     30 C         139.3783  145.8982  161.8927 C.ar    1  UNL1        0.1066
     31 C         140.7648  145.7054  162.4316 C.ar    1  UNL1        0.0576
     32 S         140.8199  144.3637  163.1001 S.2     1  UNL1       -0.0629
@<TRIPOS>BOND
     1    22    23    1
     2    23    24   ar
     3    24    21    1
     4    21    20    1
     5    20    19    1
     6    19    18    1
     7    18     1    1
     8     1     2    1
     9     2     3    1
    10     4     3    1
    11     4     5    1
    12     5     6    1
    13     6     8    1
    14     8     9   ar
    15     9    10   ar
    16    10    11   ar
    17    11    14    1
    18    14    15    1
    19    14    16    1
    20    14    17    1
    21    11    12   ar
    22    12    13   ar
    23     4     7    1
    24    24    25   ar
    25    25    26   ar
    26    26    27   ar
    27    27    28    1
    28    28    29   ar
    29    29    30   ar
    30    30    31   ar
    31    31    32   ar
    32    27    23   ar
    33    32    28   ar
    34     7     1    1
    35     6     4    1
    36    13     8   ar
@<TRIPOS>MOLECULE
*****
 32 36 0 0 0
SMALL
GASTEIGER

@<TRIPOS>ATOM
      1 N         143.4646  143.7130  164.0476 N.3     1  UNL1       -0.2726
      2 C         143.2186  145.1477  163.6854 C.3     1  UNL1        0.0721
      3 C         141.7564  145.4278  163.8689 C.3     1  UNL1        0.0190
      4 C         141.0988  144.1664  164.3445 C.3     1  UNL1        0.0201
      5 C         139.7136  144.7352  164.4324 C.3     1  UNL1        0.0061
      6 C         139.9596  143.3005  164.7946 C.3     1  UNL1        0.0237
      7 C         142.1545  143.1065  164.4550 C.3     1  UNL1        0.0724
      8 C         139.4440  141.9723  165.2636 C.ar    1  UNL1       -0.0225
      9 C         139.8096  141.4647  166.6269 C.ar    1  UNL1       -0.0043
     10 C         139.2940  140.1365  167.0959 C.ar    1  UNL1        0.0035
     11 C         138.4127  139.3159  166.2015 C.ar    1  UNL1        0.0714
     12 C         138.0471  139.8235  164.8382 C.ar    1  UNL1        0.0035
     13 C         138.5627  141.1517  164.3692 C.ar    1  UNL1       -0.0043
     14 C         137.8971  137.9877  166.6705 C.3     1  UNL1        0.4186
     15 F         137.3814  136.6594  167.1395 F       1  UNL1       -0.1659
     16 F         138.5992  137.3124  165.5299 F       1  UNL1       -0.1659
     17 F         137.1950  138.6630  167.8111 F       1  UNL1       -0.1659
     18 C         144.7883  143.0085  164.0093 C.3     1  UNL1        0.0730
     19 C         144.9130  141.6837  163.3169 C.3     1  UNL1        0.0294
     20 C         145.2727  140.4576  164.1026 C.3     1  UNL1        0.0666
     21 S         144.8695  139.1018  163.6033 S.3     1  UNL1       -0.0756
     22 C         141.6810  139.2751  164.2767 C.3     1  UNL1        0.1340
     23 N         142.2851  139.0492  162.9225 N.ar    1  UNL1       -0.2868
     24 C         143.7507  138.9696  162.6129 C.ar    1  UNL1        0.1933
     25 N         143.9011  138.7344  161.1391 N.ar    1  UNL1       -0.1221
     26 N         142.5285  138.6688  160.5378 N.ar    1  UNL1       -0.1261
     27 C         141.5297  138.8633  161.6399 C.ar    1  UNL1        0.1908
     28 C         140.0376  138.8707  161.4865 C.ar    1  UNL1        0.1467
     29 N         139.0922  137.8313  162.0116 N.ar    1  UNL1       -0.2337
     30 C         137.6992  138.2369  161.6307 C.ar    1  UNL1        0.1066
     31 C         137.7838  139.5270  160.8701 C.ar    1  UNL1        0.0576
     32 S         139.2290  139.9187  160.7809 S.2     1  UNL1       -0.0629
@<TRIPOS>BOND
     1    22    23    1
     2    23    24   ar
     3    24    21    1
     4    21    20    1
     5    20    19    1
     6    19    18    1
     7    18     1    1
     8     1     2    1
     9     2     3    1
    10     4     3    1
    11     4     5    1
    12     5     6    1
    13     6     8    1
    14     8     9   ar
    15     9    10   ar
    16    10    11   ar
    17    11    14    1
    18    14    15    1
    19    14    16    1
    20    14    17    1
    21    11    12   ar
    22    12    13   ar
    23     4     7    1
    24    24    25   ar
    25    25    26   ar
    26    26    27   ar
    27    27    28    1
    28    28    29   ar
    29    29    30   ar
    30    30    31   ar
    31    31    32   ar
    32    27    23   ar
    33    32    28   ar
    34     7     1    1
    35     6     4    1
    36    13     8   ar
@<TRIPOS>MOLECULE
*****
 32 36 0 0 0
SMALL
GASTEIGER

@<TRIPOS>ATOM
      1 N         138.3405  140.2194  162.7396 N.3     1  UNL1       -0.2726
      2 C         138.1877  138.8980  162.0464 C.3     1  UNL1        0.0721
      3 C         138.8326  137.8484  162.9023 C.3     1  UNL1        0.0190
      4 C         139.3839  138.5211  164.1244 C.3     1  UNL1        0.0201
      5 C         139.9376  137.2764  164.7521 C.3     1  UNL1        0.0061
      6 C         140.0904  138.5978  165.4453 C.3     1  UNL1        0.0237
      7 C         139.0797  139.9865  164.0239 C.3     1  UNL1        0.0724
      8 C         140.5865  139.4051  166.6082 C.ar    1  UNL1       -0.0225
      9 C         142.0602  139.5382  166.8545 C.ar    1  UNL1       -0.0043
     10 C         142.5563  140.3454  168.0174 C.ar    1  UNL1        0.0035
     11 C         141.5788  141.0195  168.9339 C.ar    1  UNL1        0.0714
     12 C         140.1051  140.8864  168.6875 C.ar    1  UNL1        0.0035
     13 C         139.6090  140.0792  167.5247 C.ar    1  UNL1       -0.0043
     14 C         142.0749  141.8267  170.0967 C.3     1  UNL1        0.4186
     15 F         142.5710  142.6340  171.2597 F       1  UNL1       -0.1659
     16 F         142.9698  142.6026  169.1763 F       1  UNL1       -0.1659
     17 F         141.1800  141.0508  171.0171 F       1  UNL1       -0.1659
     18 C         137.8416  141.5417  162.2369 C.3     1  UNL1        0.0730
     19 C         137.4607  142.6185  163.2092 C.3     1  UNL1        0.0294
     20 C         137.7463  144.0554  162.8870 C.3     1  UNL1        0.0666
     21 S         138.8839  144.7634  163.5611 S.3     1  UNL1       -0.0756
     22 C         141.4034  143.4505  161.9554 C.3     1  UNL1        0.1340
     23 N         141.1610  143.3693  163.4335 N.ar    1  UNL1       -0.2868
     24 C         140.0030  143.9728  164.1716 C.ar    1  UNL1        0.1933
     25 N         140.1604  143.6469  165.6272 N.ar    1  UNL1       -0.1221
     26 N         141.4158  142.8420  165.7889 N.ar    1  UNL1       -0.1261
     27 C         142.0343  142.6704  164.4331 C.ar    1  UNL1        0.1908
     28 C         143.3031  141.9299  164.1301 C.ar    1  UNL1        0.1467
     29 N         143.4047  140.5043  163.6747 N.ar    1  UNL1       -0.2337
     30 C         144.8575  140.1784  163.4925 C.ar    1  UNL1        0.1066
     31 C         145.6537  141.4026  163.8351 C.ar    1  UNL1        0.0576
     32 S         144.6930  142.4851  164.2292 S.2     1  UNL1       -0.0629
@<TRIPOS>BOND
     1    22    23    1
     2    23    24   ar
     3    24    21    1
     4    21    20    1
     5    20    19    1
     6    19    18    1
     7    18     1    1
     8     1     2    1
     9     2     3    1
    10     4     3    1
    11     4     5    1
    12     5     6    1
    13     6     8    1
    14     8     9   ar
    15     9    10   ar
    16    10    11   ar
    17    11    14    1
    18    14    15    1
    19    14    16    1
    20    14    17    1
    21    11    12   ar
    22    12    13   ar
    23     4     7    1
    24    24    25   ar
    25    25    26   ar
    26    26    27   ar
    27    27    28    1
    28    28    29   ar
    29    29    30   ar
    30    30    31   ar
    31    31    32   ar
    32    27    23   ar
    33    32    28   ar
    34     7     1    1
    35     6     4    1
    36    13     8   ar
@<TRIPOS>MOLECULE
*****
 32 36 0 0 0
SMALL
GASTEIGER

@<TRIPOS>ATOM
      1 N         142.7126  142.8748  161.6171 N.3     1  UNL1       -0.2726
      2 C         144.0584  142.8216  160.9568 C.3     1  UNL1        0.0721
      3 C         145.0305  142.2285  161.9332 C.3     1  UNL1        0.0190
      4 C         144.2855  141.9151  163.1968 C.3     1  UNL1        0.0201
      5 C         145.4649  141.3634  163.9415 C.3     1  UNL1        0.0061
      6 C         144.1191  141.4166  164.6017 C.3     1  UNL1        0.0237
      7 C         142.8529  142.3146  163.0014 C.3     1  UNL1        0.0724
      8 C         143.2460  141.1595  165.7940 C.ar    1  UNL1       -0.0225
      9 C         143.0421  142.2345  166.8201 C.ar    1  UNL1       -0.0043
     10 C         142.1690  141.9774  168.0124 C.ar    1  UNL1        0.0035
     11 C         141.4998  140.6453  168.1786 C.ar    1  UNL1        0.0714
     12 C         141.7036  139.5703  167.1525 C.ar    1  UNL1        0.0035
     13 C         142.5767  139.8274  165.9602 C.ar    1  UNL1       -0.0043
     14 C         140.6267  140.3882  169.3709 C.3     1  UNL1        0.4186
     15 F         139.7535  140.1312  170.5632 F       1  UNL1       -0.1659
     16 F         141.3872  139.1271  169.6559 F       1  UNL1       -0.1659
     17 F         139.8662  141.6493  169.0859 F       1  UNL1       -0.1659
     18 C         141.4484  143.3967  161.0011 C.3     1  UNL1        0.0730
     19 C         141.0988  144.8502  161.1235 C.3     1  UNL1        0.0294
     20 C         140.4951  145.3721  162.3936 C.3     1  UNL1        0.0666
     21 S         139.0712  145.0478  162.7358 S.3     1  UNL1       -0.0756
     22 C         139.9115  142.8154  164.9629 C.3     1  UNL1        0.1340
     23 N         139.0007  142.5933  163.7920 N.ar    1  UNL1       -0.2868
     24 C         138.6144  143.6194  162.7684 C.ar    1  UNL1        0.1933
     25 N         137.6911  142.9664  161.7829 N.ar    1  UNL1       -0.1221
     26 N         137.5068  141.5367  162.1975 N.ar    1  UNL1       -0.1261
     27 C         138.3161  141.3060  163.4392 C.ar    1  UNL1        0.1908
     28 C         138.4222  140.0149  164.1954 C.ar    1  UNL1        0.1467
     29 N         138.0943  139.8126  165.6450 N.ar    1  UNL1       -0.2337
     30 C         138.3443  138.3721  165.9802 C.ar    1  UNL1        0.1066
     31 C         138.8268  137.6841  164.7377 C.ar    1  UNL1        0.0576
     32 S         138.8749  138.6994  163.6346 S.2     1  UNL1       -0.0629
@<TRIPOS>BOND
     1    22    23    1
     2    23    24   ar
     3    24    21    1
     4    21    20    1
     5    20    19    1
     6    19    18    1
     7    18     1    1
     8     1     2    1
     9     2     3    1
    10     4     3    1
    11     4     5    1
    12     5     6    1
    13     6     8    1
    14     8     9   ar
    15     9    10   ar
    16    10    11   ar
    17    11    14    1
    18    14    15    1
    19    14    16    1
    20    14    17    1
    21    11    12   ar
    22    12    13   ar
    23     4     7    1
    24    24    25   ar
    25    25    26   ar
    26    26    27   ar
    27    27    28    1
    28    28    29   ar
    29    29    30   ar
    30    30    31   ar
    31    31    32   ar
    32    27    23   ar
    33    32    28   ar
    34     7     1    1
    35     6     4    1
    36    13     8   ar
@<TRIPOS>MOLECULE
*****
 32 36 0 0 0
SMALL
GASTEIGER

@<TRIPOS>ATOM
      1 N         142.5877  144.6011  163.3639 N.3     1  UNL1       -0.2726
      2 C         143.7683  144.4437  162.4521 C.3     1  UNL1        0.0721
      3 C         144.5873  143.2895  162.9493 C.3     1  UNL1        0.0190
      4 C         143.9129  142.7337  164.1684 C.3     1  UNL1        0.0201
      5 C         144.9167  141.6483  164.4218 C.3     1  UNL1        0.0061
      6 C         143.7361  141.8057  165.3336 C.3     1  UNL1        0.0237
      7 C         142.6771  143.5443  164.4247 C.3     1  UNL1        0.0724
      8 C         142.9525  141.3609  166.5328 C.ar    1  UNL1       -0.0225
      9 C         142.1812  140.0751  166.4899 C.ar    1  UNL1       -0.0043
     10 C         141.3975  139.6303  167.6891 C.ar    1  UNL1        0.0035
     11 C         141.3852  140.4712  168.9311 C.ar    1  UNL1        0.0714
     12 C         142.1565  141.7570  168.9739 C.ar    1  UNL1        0.0035
     13 C         142.9401  142.2019  167.7748 C.ar    1  UNL1       -0.0043
     14 C         140.6015  140.0264  170.1302 C.3     1  UNL1        0.4186
     15 F         139.8178  139.5816  171.3295 F       1  UNL1       -0.1659
     16 F         141.5276  138.8590  170.3024 F       1  UNL1       -0.1659
     17 F         139.6755  141.1938  169.9581 F       1  UNL1       -0.1659
     18 C         141.5074  145.6340  163.2373 C.3     1  UNL1        0.0730
     19 C         140.4010  145.4440  162.2425 C.3     1  UNL1        0.0294
     20 C         140.7126  144.9600  160.8573 C.3     1  UNL1        0.0666
     21 S         140.0430  143.7278  160.3251 S.3     1  UNL1       -0.0756
     22 C         141.1422  141.2219  162.1032 C.3     1  UNL1        0.1340
     23 N         139.7265  141.7152  162.0555 N.ar    1  UNL1       -0.2868
     24 C         139.2212  142.8670  161.2382 C.ar    1  UNL1        0.1933
     25 N         137.7499  143.0070  161.4943 N.ar    1  UNL1       -0.1221
     26 N         137.3458  141.9417  162.4699 N.ar    1  UNL1       -0.1261
     27 C         138.5674  141.1433  162.8168 C.ar    1  UNL1        0.1908
     28 C         138.6205  139.9777  163.7594 C.ar    1  UNL1        0.1467
     29 N         138.9917  138.5694  163.4001 N.ar    1  UNL1       -0.2337
     30 C         138.9125  137.7370  164.6454 C.ar    1  UNL1        0.1066
     31 C         138.4923  138.6309  165.7744 C.ar    1  UNL1        0.0576
     32 S         138.3119  140.0156  165.2268 S.2     1  UNL1       -0.0629
@<TRIPOS>BOND
     1    22    23    1
     2    23    24   ar
     3    24    21    1
     4    21    20    1
     5    20    19    1
     6    19    18    1
     7    18     1    1
     8     1     2    1
     9     2     3    1
    10     4     3    1
    11     4     5    1
    12     5     6    1
    13     6     8    1
    14     8     9   ar
    15     9    10   ar
    16    10    11   ar
    17    11    14    1
    18    14    15    1
    19    14    16    1
    20    14    17    1
    21    11    12   ar
    22    12    13   ar
    23     4     7    1
    24    24    25   ar
    25    25    26   ar
    26    26    27   ar
    27    27    28    1
    28    28    29   ar
    29    29    30   ar
    30    30    31   ar
    31    31    32   ar
    32    27    23   ar
    33    32    28   ar
    34     7     1    1
    35     6     4    1
    36    13     8   ar
@<TRIPOS>MOLECULE
*****
 32 36 0 0 0
SMALL
GASTEIGER

@<TRIPOS>ATOM
      1 N         138.5045  140.4027  163.3806 N.3     1  UNL1       -0.2726
      2 C         138.5553  139.0858  162.6642 C.3     1  UNL1        0.0721
      3 C         139.5872  138.2310  163.3383 C.3     1  UNL1        0.0190
      4 C         140.1742  139.0195  164.4713 C.3     1  UNL1        0.0201
      5 C         141.1249  137.9532  164.9285 C.3     1  UNL1        0.0061
      6 C         141.0741  139.2701  165.6449 C.3     1  UNL1        0.0237
      7 C         139.5050  140.3617  164.4974 C.3     1  UNL1        0.0724
      8 C         141.5644  140.1751  166.7361 C.ar    1  UNL1       -0.0225
      9 C         140.9817  140.0720  168.1144 C.ar    1  UNL1       -0.0043
     10 C         141.4720  140.9769  169.2056 C.ar    1  UNL1        0.0035
     11 C         142.5449  141.9850  168.9184 C.ar    1  UNL1        0.0714
     12 C         143.1276  142.0881  167.5400 C.ar    1  UNL1        0.0035
     13 C         142.6374  141.1832  166.4488 C.ar    1  UNL1       -0.0043
     14 C         143.0352  142.8900  170.0095 C.3     1  UNL1        0.4186
     15 F         143.5255  143.7950  171.1007 F       1  UNL1       -0.1659
     16 F         141.6468  143.4297  170.1857 F       1  UNL1       -0.1659
     17 F         144.4236  142.3503  169.8333 F       1  UNL1       -0.1659
     18 C         137.6102  141.5578  163.0400 C.3     1  UNL1        0.0730
     19 C         137.6613  142.8130  163.8596 C.3     1  UNL1        0.0294
     20 C         137.6389  144.1518  163.1834 C.3     1  UNL1        0.0666
     21 S         138.8948  144.7093  162.5819 S.3     1  UNL1       -0.0756
     22 C         141.4214  143.9639  164.5081 C.3     1  UNL1        0.1340
     23 N         141.1911  143.4504  163.1176 N.ar    1  UNL1       -0.2868
     24 C         140.0298  143.7930  162.2323 C.ar    1  UNL1        0.1933
     25 N         140.2026  143.0585  160.9359 N.ar    1  UNL1       -0.1221
     26 N         141.4708  142.2618  161.0201 N.ar    1  UNL1       -0.1261
     27 C         142.0818  142.5040  162.3685 C.ar    1  UNL1        0.1908
     28 C         143.3591  141.9051  162.8781 C.ar    1  UNL1        0.1467
     29 N         144.5662  142.6655  163.3415 N.ar    1  UNL1       -0.2337
     30 C         145.6067  141.6710  163.7637 C.ar    1  UNL1        0.1066
     31 C         145.0427  140.2959  163.5612 C.ar    1  UNL1        0.0576
     32 S         143.6536  140.4405  163.0139 S.2     1  UNL1       -0.0629
@<TRIPOS>BOND
     1    22    23    1
     2    23    24   ar
     3    24    21    1
     4    21    20    1
     5    20    19    1
     6    19    18    1
     7    18     1    1
     8     1     2    1
     9     2     3    1
    10     4     3    1
    11     4     5    1
    12     5     6    1
    13     6     8    1
    14     8     9   ar
    15     9    10   ar
    16    10    11   ar
    17    11    14    1
    18    14    15    1
    19    14    16    1
    20    14    17    1
    21    11    12   ar
    22    12    13   ar
    23     4     7    1
    24    24    25   ar
    25    25    26   ar
    26    26    27   ar
    27    27    28    1
    28    28    29   ar
    29    29    30   ar
    30    30    31   ar
    31    31    32   ar
    32    27    23   ar
    33    32    28   ar
    34     7     1    1
    35     6     4    1
    36    13     8   ar
@<TRIPOS>MOLECULE
*****
 32 36 0 0 0
SMALL
GASTEIGER

@<TRIPOS>ATOM
      1 N         144.2199  141.6480  163.2031 N.3     1  UNL1       -0.2726
      2 C         144.7943  140.3773  162.6504 C.3     1  UNL1        0.0721
      3 C         144.4606  139.2660  163.6010 C.3     1  UNL1        0.0190
      4 C         143.6800  139.8498  164.7411 C.3     1  UNL1        0.0201
      5 C         143.5017  138.5601  165.4859 C.3     1  UNL1        0.0061
      6 C         142.9274  139.8308  166.0385 C.3     1  UNL1        0.0237
      7 C         143.5313  141.3220  164.4952 C.3     1  UNL1        0.0724
      8 C         142.1613  140.5534  167.1066 C.ar    1  UNL1       -0.0225
      9 C         142.7427  141.7784  167.7481 C.ar    1  UNL1       -0.0043
     10 C         141.9765  142.5010  168.8162 C.ar    1  UNL1        0.0035
     11 C         140.6291  141.9987  169.2428 C.ar    1  UNL1        0.0714
     12 C         140.0477  140.7737  168.6013 C.ar    1  UNL1        0.0035
     13 C         140.8138  140.0511  167.5332 C.ar    1  UNL1       -0.0043
     14 C         139.8630  142.7213  170.3109 C.3     1  UNL1        0.4186
     15 F         139.0968  143.4440  171.3790 F       1  UNL1       -0.1659
     16 F         140.8191  143.8733  170.2173 F       1  UNL1       -0.1659
     17 F         138.9069  141.5694  170.4045 F       1  UNL1       -0.1659
     18 C         144.3171  143.0063  162.5741 C.3     1  UNL1        0.0730
     19 C         143.9110  144.2234  163.3510 C.3     1  UNL1        0.0294
     20 C         142.8887  145.1659  162.7882 C.3     1  UNL1        0.0666
     21 S         141.4882  145.1612  163.3253 S.3     1  UNL1       -0.0756
     22 C         140.7322  142.6545  161.3774 C.3     1  UNL1        0.1340
     23 N         140.5063  142.7192  162.8589 N.ar    1  UNL1       -0.2868
     24 C         140.8538  143.8714  163.7543 C.ar    1  UNL1        0.1933
     25 N         140.4557  143.5074  165.1539 N.ar    1  UNL1       -0.1221
     26 N         139.8620  142.1302  165.1236 N.ar    1  UNL1       -0.1261
     27 C         139.8933  141.6430  163.7052 C.ar    1  UNL1        0.1908
     28 C         139.3985  140.3132  163.2186 C.ar    1  UNL1        0.1467
     29 N         138.1267  140.0689  162.4617 N.ar    1  UNL1       -0.2337
     30 C         138.0308  138.5989  162.1787 C.ar    1  UNL1        0.1066
     31 C         139.2434  137.9348  162.7608 C.ar    1  UNL1        0.0576
     32 S         140.0887  138.9942  163.4034 S.2     1  UNL1       -0.0629
@<TRIPOS>BOND
     1    22    23    1
     2    23    24   ar
     3    24    21    1
     4    21    20    1
     5    20    19    1
     6    19    18    1
     7    18     1    1
     8     1     2    1
     9     2     3    1
    10     4     3    1
    11     4     5    1
    12     5     6    1
    13     6     8    1
    14     8     9   ar
    15     9    10   ar
    16    10    11   ar
    17    11    14    1
    18    14    15    1
    19    14    16    1
    20    14    17    1
    21    11    12   ar
    22    12    13   ar
    23     4     7    1
    24    24    25   ar
    25    25    26   ar
    26    26    27   ar
    27    27    28    1
    28    28    29   ar
    29    29    30   ar
    30    30    31   ar
    31    31    32   ar
    32    27    23   ar
    33    32    28   ar
    34     7     1    1
    35     6     4    1
    36    13     8   ar
@<TRIPOS>MOLECULE
*****
 32 36 0 0 0
SMALL
GASTEIGER

@<TRIPOS>ATOM
      1 N         137.9824  141.5418  162.4482 N.3     1  UNL1       -0.2726
      2 C         137.6294  140.5097  161.4186 C.3     1  UNL1        0.0721
      3 C         138.0148  139.1647  161.9595 C.3     1  UNL1        0.0190
      4 C         138.6060  139.3656  163.3233 C.3     1  UNL1        0.0201
      5 C         138.8797  137.9153  163.5908 C.3     1  UNL1        0.0061
      6 C         139.2327  138.9474  164.6204 C.3     1  UNL1        0.0237
      7 C         138.5860  140.8347  163.6254 C.3     1  UNL1        0.0724
      8 C         139.7984  139.3018  165.9636 C.ar    1  UNL1       -0.0225
      9 C         141.2842  139.3728  166.1567 C.ar    1  UNL1       -0.0043
     10 C         141.8499  139.7273  167.5000 C.ar    1  UNL1        0.0035
     11 C         140.9297  140.0107  168.6502 C.ar    1  UNL1        0.0714
     12 C         139.4439  139.9397  168.4571 C.ar    1  UNL1        0.0035
     13 C         138.8782  139.5853  167.1138 C.ar    1  UNL1       -0.0043
     14 C         141.4954  140.3652  169.9934 C.3     1  UNL1        0.4186
     15 F         142.0611  140.7196  171.3368 F       1  UNL1       -0.1659
     16 F         141.1881  141.8115  169.7411 F       1  UNL1       -0.1659
     17 F         141.8026  138.9188  170.2457 F       1  UNL1       -0.1659
     18 C         137.7693  143.0213  162.3226 C.3     1  UNL1        0.0730
     19 C         138.4127  143.9575  163.3022 C.3     1  UNL1        0.0294
     20 C         139.2072  145.1300  162.8084 C.3     1  UNL1        0.0666
     21 S         140.7009  145.1347  162.9447 S.3     1  UNL1       -0.0756
     22 C         141.1729  142.6832  160.8430 C.3     1  UNL1        0.1340
     23 N         141.6488  142.7297  162.2648 N.ar    1  UNL1       -0.2868
     24 C         141.4319  143.8565  163.2308 C.ar    1  UNL1        0.1933
     25 N         142.0743  143.4807  164.5332 N.ar    1  UNL1       -0.1221
     26 N         142.6882  142.1216  164.3721 N.ar    1  UNL1       -0.1261
     27 C         142.4253  141.6574  162.9701 C.ar    1  UNL1        0.1908
     28 C         142.8621  140.3504  162.3776 C.ar    1  UNL1        0.1467
     29 N         142.2392  139.0114  162.6401 N.ar    1  UNL1       -0.2337
     30 C         142.9906  137.9864  161.8433 C.ar    1  UNL1        0.1066
     31 C         144.0779  138.6921  161.0884 C.ar    1  UNL1        0.0576
     32 S         143.9985  140.1531  161.4186 S.2     1  UNL1       -0.0629
@<TRIPOS>BOND
     1    22    23    1
     2    23    24   ar
     3    24    21    1
     4    21    20    1
     5    20    19    1
     6    19    18    1
     7    18     1    1
     8     1     2    1
     9     2     3    1
    10     4     3    1
    11     4     5    1
    12     5     6    1
    13     6     8    1
    14     8     9   ar
    15     9    10   ar
    16    10    11   ar
    17    11    14    1
    18    14    15    1
    19    14    16    1
    20    14    17    1
    21    11    12   ar
    22    12    13   ar
    23     4     7    1
    24    24    25   ar
    25    25    26   ar
    26    26    27   ar
    27    27    28    1
    28    28    29   ar
    29    29    30   ar
    30    30    31   ar
    31    31    32   ar
    32    27    23   ar
    33    32    28   ar
    34     7     1    1
    35     6     4    1
    36    13     8   ar
@<TRIPOS>MOLECULE
*****
 32 36 0 0 0
SMALL
GASTEIGER

@<TRIPOS>ATOM
      1 N         141.2321  138.3794  163.0649 N.3     1  UNL1       -0.2726
      2 C         139.9678  137.6517  162.7155 C.3     1  UNL1        0.0721
      3 C         138.9986  137.8381  163.8450 C.3     1  UNL1        0.0190
      4 C         139.6638  138.6809  164.8924 C.3     1  UNL1        0.0201
      5 C         138.5048  138.6915  165.8446 C.3     1  UNL1        0.0061
      6 C         139.7691  139.4192  166.1939 C.3     1  UNL1        0.0237
      7 C         141.0442  139.0155  164.4103 C.3     1  UNL1        0.0724
      8 C         140.5598  140.2655  167.1470 C.ar    1  UNL1       -0.0225
      9 C         141.8080  139.7207  167.7756 C.ar    1  UNL1       -0.0043
     10 C         142.5988  140.5671  168.7287 C.ar    1  UNL1        0.0035
     11 C         142.1412  141.9583  169.0532 C.ar    1  UNL1        0.0714
     12 C         140.8930  142.5031  168.4247 C.ar    1  UNL1        0.0035
     13 C         140.1023  141.6567  167.4716 C.ar    1  UNL1       -0.0043
     14 C         142.9319  142.8046  170.0063 C.3     1  UNL1        0.4186
     15 F         143.7227  143.6510  170.9595 F       1  UNL1       -0.1659
     16 F         141.8204  143.8114  170.0345 F       1  UNL1       -0.1659
     17 F         144.0435  141.7979  169.9781 F       1  UNL1       -0.1659
     18 C         142.4674  138.4574  162.2176 C.3     1  UNL1        0.0730
     19 C         142.4844  137.8270  160.8566 C.3     1  UNL1        0.0294
     20 C         142.7273  138.6723  159.6414 C.3     1  UNL1        0.0666
     21 S         141.5692  139.2803  158.9071 S.3     1  UNL1       -0.0756
     22 C         141.4956  141.7971  160.9832 C.3     1  UNL1        0.1340
     23 N         140.3350  140.9185  160.6211 N.ar    1  UNL1       -0.2868
     24 C         140.3688  139.7617  159.6669 C.ar    1  UNL1        0.1933
     25 N         138.9915  139.1707  159.6058 N.ar    1  UNL1       -0.1221
     26 N         138.1064  139.9623  160.5223 N.ar    1  UNL1       -0.1261
     27 C         138.9366  141.0425  161.1499 C.ar    1  UNL1        0.1908
     28 C         138.4535  142.0668  162.1334 C.ar    1  UNL1        0.1467
     29 N         138.1922  143.5148  161.8416 N.ar    1  UNL1       -0.2337
     30 C         137.7240  144.1659  163.1093 C.ar    1  UNL1        0.1066
     31 C         137.6960  143.1203  164.1844 C.ar    1  UNL1        0.0576
     32 S         138.1468  141.8230  163.5813 S.2     1  UNL1       -0.0629
@<TRIPOS>BOND
     1    22    23    1
     2    23    24   ar
     3    24    21    1
     4    21    20    1
     5    20    19    1
     6    19    18    1
     7    18     1    1
     8     1     2    1
     9     2     3    1
    10     4     3    1
    11     4     5    1
    12     5     6    1
    13     6     8    1
    14     8     9   ar
    15     9    10   ar
    16    10    11   ar
    17    11    14    1
    18    14    15    1
    19    14    16    1
    20    14    17    1
    21    11    12   ar
    22    12    13   ar
    23     4     7    1
    24    24    25   ar
    25    25    26   ar
    26    26    27   ar
    27    27    28    1
    28    28    29   ar
    29    29    30   ar
    30    30    31   ar
    31    31    32   ar
    32    27    23   ar
    33    32    28   ar
    34     7     1    1
    35     6     4    1
    36    13     8   ar
