@<TRIPOS>MOLECULE
*****
 39 43 0 0 0
SMALL
GASTEIGER

@<TRIPOS>ATOM
      1 C         142.1286  143.9158  162.7820 C.3     1  UNL1        0.2141
      2 C         142.2835  141.6971  159.6009 C.ar    1  UNL1        0.1233
      3 C         142.0382  141.8638  161.0713 C.ar    1  UNL1        0.1181
      4 N         142.2639  143.3055  161.4184 N.ar    1  UNL1       -0.2208
      5 N         142.6488  144.0298  160.1625 N.ar    1  UNL1       -0.0633
      6 N         142.6609  143.0357  159.0392 N.ar    1  UNL1       -0.1287
      7 C         143.1262  138.7575  157.0713 C.ar    1  UNL1        0.1547
      8 C         143.2385  140.0381  157.8443 C.ar    1  UNL1        0.0400
      9 C         142.1712  140.4165  158.8280 C.ar    1  UNL1        0.0241
     10 C         140.9916  139.5143  159.0388 C.ar    1  UNL1        0.0033
     11 C         140.8792  138.2337  158.2658 C.ar    1  UNL1        0.0207
     12 C         141.9465  137.8553  157.2822 C.ar    1  UNL1        0.0994
     13 N         141.8341  136.5746  156.5092 N.ar    1  UNL1       -0.2839
     14 C         140.9307  136.3285  155.3374 C.ar    1  UNL1        0.1826
     15 N         141.1437  134.9170  154.8764 N.ar    1  UNL1       -0.2280
     16 C         142.1788  134.2909  155.7634 C.ar    1  UNL1        0.0786
     17 C         142.6962  132.8868  155.6594 C.3     1  UNL1        0.0538
     18 C         142.6054  135.3154  156.7725 C.ar    1  UNL1        0.0963
     19 C         144.9860  139.4467  155.3933 C.3     1  UNL1        0.2525
     20 O         144.1934  138.3791  156.0877 O.3     1  UNL1       -0.4700
     21 C         141.8620  143.0420  163.9716 C.2     1  UNL1        0.2545
     22 O         142.9927  142.3132  164.6354 O.2     1  UNL1       -0.2724
     23 N         140.4648  142.8970  164.4976 N.am    1  UNL1       -0.2487
     24 C         140.1982  142.0231  165.6873 C.ar    1  UNL1        0.0574
     25 C         139.4970  140.7089  165.5106 C.ar    1  UNL1        0.0182
     26 C         139.2305  139.8352  166.7003 C.ar    1  UNL1        0.0417
     27 C         139.6651  140.2756  168.0667 C.ar    1  UNL1        0.1818
     28 C         140.3663  141.5897  168.2435 C.ar    1  UNL1        0.1829
     29 C         140.6328  142.4635  167.0538 C.ar    1  UNL1        0.0553
     30 O         140.6752  141.7578  169.7016 O.3     1  UNL1       -0.3947
     31 C         140.1650  140.5475  170.4261 C.3     1  UNL1        0.5892
     32 F         140.7063  141.2410  171.6411 F       1  UNL1       -0.1252
     33 F         139.7680  139.4823  171.4046 F       1  UNL1       -0.1252
     34 O         139.5407  139.6314  169.4157 O.3     1  UNL1       -0.3948
     35 C         139.3341  143.6257  163.8339 C.3     1  UNL1        0.2016
     36 C         138.2081  144.1742  164.6593 C.3     1  UNL1        0.4160
     37 F         137.0822  144.7228  165.4848 F       1  UNL1       -0.1682
     38 F         137.3218  143.0580  164.1921 F       1  UNL1       -0.1682
     39 F         139.0944  145.2905  165.1265 F       1  UNL1       -0.1682
@<TRIPOS>BOND
     1    19    20    1
     2    20     7    1
     3     7     8   ar
     4     8     9   ar
     5     9     2    1
     6     2     3   ar
     7     3     4   ar
     8     4     1    1
     9     1    21    1
    10    21    22    2
    11    21    23   am
    12    23    35    1
    13    35    36    1
    14    36    37    1
    15    36    38    1
    16    36    39    1
    17    23    24    1
    18    24    25   ar
    19    25    26   ar
    20    26    27   ar
    21    27    28   ar
    22    28    29   ar
    23    28    30    1
    24    30    31    1
    25    31    32    1
    26    31    33    1
    27    31    34    1
    28     4     5   ar
    29     5     6   ar
    30     9    10   ar
    31    10    11   ar
    32    11    12   ar
    33    12    13    1
    34    13    14   ar
    35    14    15   ar
    36    15    16   ar
    37    16    17    1
    38    16    18   ar
    39    12     7   ar
    40    18    13   ar
    41     6     2   ar
    42    29    24   ar
    43    34    27    1
@<TRIPOS>MOLECULE
*****
 39 43 0 0 0
SMALL
GASTEIGER

@<TRIPOS>ATOM
      1 C         142.8456  140.0073  159.6007 C.3     1  UNL1        0.2141
      2 C         142.9958  137.0108  157.1381 C.ar    1  UNL1        0.1233
      3 C         142.5808  137.6094  158.4494 C.ar    1  UNL1        0.1181
      4 N         143.0471  139.0349  158.4764 N.ar    1  UNL1       -0.2208
      5 N         143.7502  139.3172  157.1819 N.ar    1  UNL1       -0.0633
      6 N         143.7185  138.0662  156.3547 N.ar    1  UNL1       -0.1287
      7 C         143.2123  133.0568  156.8749 C.ar    1  UNL1        0.1547
      8 C         143.4741  134.4639  157.3239 C.ar    1  UNL1        0.0400
      9 C         142.7339  135.6037  156.6891 C.ar    1  UNL1        0.0241
     10 C         141.7320  135.3365  155.6054 C.ar    1  UNL1        0.0033
     11 C         141.4701  133.9294  155.1563 C.ar    1  UNL1        0.0207
     12 C         142.2103  132.7897  155.7911 C.ar    1  UNL1        0.0994
     13 N         141.9484  131.3825  155.3420 N.ar    1  UNL1       -0.2839
     14 C         142.9675  130.2872  155.2348 C.ar    1  UNL1        0.1826
     15 N         142.2704  129.0515  154.7479 N.ar    1  UNL1       -0.2280
     16 C         140.8203  129.3832  154.5541 C.ar    1  UNL1        0.0786
     17 C         139.7563  128.4398  154.0770 C.3     1  UNL1        0.0538
     18 C         140.6214  130.8239  154.9213 C.ar    1  UNL1        0.0963
     19 C         145.3725  132.1010  157.9564 C.3     1  UNL1        0.2525
     20 O         143.9525  131.9170  157.5096 O.3     1  UNL1       -0.4700
     21 C         141.7799  139.7576  160.6263 C.2     1  UNL1        0.2545
     22 O         140.3741  140.2161  160.3740 O.2     1  UNL1       -0.2724
     23 N         142.1200  139.0496  161.9042 N.am    1  UNL1       -0.2487
     24 C         141.0542  138.8000  162.9299 C.ar    1  UNL1        0.0574
     25 C         139.9491  137.8276  162.6417 C.ar    1  UNL1        0.0182
     26 C         138.8834  137.5780  163.6674 C.ar    1  UNL1        0.0417
     27 C         138.9228  138.3009  164.9811 C.ar    1  UNL1        0.1818
     28 C         140.0280  139.2733  165.2692 C.ar    1  UNL1        0.1829
     29 C         141.0936  139.5229  164.2436 C.ar    1  UNL1        0.0553
     30 O         139.8059  139.8336  166.6428 O.3     1  UNL1       -0.3947
     31 C         138.5635  139.2075  167.2036 C.3     1  UNL1        0.5892
     32 F         138.8627  140.0613  168.4001 F       1  UNL1       -0.1252
     33 F         137.3838  138.7599  168.0145 F       1  UNL1       -0.1252
     34 O         138.0177  138.2602  166.1767 O.3     1  UNL1       -0.3948
     35 C         143.5257  138.5912  162.1565 C.3     1  UNL1        0.2016
     36 C         144.4245  139.3878  163.0553 C.3     1  UNL1        0.4160
     37 F         145.3232  140.1844  163.9540 F       1  UNL1       -0.1682
     38 F         144.0422  138.5135  164.2126 F       1  UNL1       -0.1682
     39 F         144.8068  140.2621  161.8980 F       1  UNL1       -0.1682
@<TRIPOS>BOND
     1    19    20    1
     2    20     7    1
     3     7     8   ar
     4     8     9   ar
     5     9     2    1
     6     2     3   ar
     7     3     4   ar
     8     4     1    1
     9     1    21    1
    10    21    22    2
    11    21    23   am
    12    23    35    1
    13    35    36    1
    14    36    37    1
    15    36    38    1
    16    36    39    1
    17    23    24    1
    18    24    25   ar
    19    25    26   ar
    20    26    27   ar
    21    27    28   ar
    22    28    29   ar
    23    28    30    1
    24    30    31    1
    25    31    32    1
    26    31    33    1
    27    31    34    1
    28     4     5   ar
    29     5     6   ar
    30     9    10   ar
    31    10    11   ar
    32    11    12   ar
    33    12    13    1
    34    13    14   ar
    35    14    15   ar
    36    15    16   ar
    37    16    17    1
    38    16    18   ar
    39    12     7   ar
    40    18    13   ar
    41     6     2   ar
    42    29    24   ar
    43    34    27    1
@<TRIPOS>MOLECULE
*****
 39 43 0 0 0
SMALL
GASTEIGER

@<TRIPOS>ATOM
      1 C         142.1188  144.2089  162.8434 C.3     1  UNL1        0.2141
      2 C         139.9325  143.6145  159.6918 C.ar    1  UNL1        0.1233
      3 C         140.7557  143.0938  160.8325 C.ar    1  UNL1        0.1181
      4 N         141.2560  144.2698  161.6179 N.ar    1  UNL1       -0.2208
      5 N         140.7420  145.5173  160.9625 N.ar    1  UNL1       -0.0633
      6 N         139.9240  145.1123  159.7721 N.ar    1  UNL1       -0.1287
      7 C         138.6154  142.3472  156.1691 C.ar    1  UNL1        0.1547
      8 C         139.3084  143.1784  157.2078 C.ar    1  UNL1        0.0400
      9 C         139.2395  142.7832  158.6532 C.ar    1  UNL1        0.0241
     10 C         138.4776  141.5569  159.0599 C.ar    1  UNL1        0.0033
     11 C         137.7845  140.7257  158.0213 C.ar    1  UNL1        0.0207
     12 C         137.8535  141.1208  156.5760 C.ar    1  UNL1        0.0994
     13 N         137.1604  140.2895  155.5373 N.ar    1  UNL1       -0.2839
     14 C         135.7403  140.4510  155.0824 C.ar    1  UNL1        0.1826
     15 N         135.4680  139.4121  154.0352 N.ar    1  UNL1       -0.2280
     16 C         136.7200  138.6085  153.8429 C.ar    1  UNL1        0.0786
     17 C         136.8951  137.4638  152.8896 C.3     1  UNL1        0.0538
     18 C         137.7659  139.1508  154.7713 C.ar    1  UNL1        0.0963
     19 C         139.8989  142.4045  153.9110 C.3     1  UNL1        0.2525
     20 O         138.6843  142.7423  154.7238 O.3     1  UNL1       -0.4700
     21 C         141.8150  143.2162  163.9260 C.2     1  UNL1        0.2545
     22 O         142.6774  142.0001  164.0921 O.2     1  UNL1       -0.2724
     23 N         140.6488  143.4395  164.8426 N.am    1  UNL1       -0.2487
     24 C         140.3449  142.4467  165.9252 C.ar    1  UNL1        0.0574
     25 C         139.6374  141.1667  165.5921 C.ar    1  UNL1        0.0182
     26 C         139.3336  140.1740  166.6747 C.ar    1  UNL1        0.0417
     27 C         139.7374  140.4612  168.0905 C.ar    1  UNL1        0.1818
     28 C         140.4449  141.7412  168.4237 C.ar    1  UNL1        0.1829
     29 C         140.7487  142.7339  167.3410 C.ar    1  UNL1        0.0553
     30 O         140.7184  141.7493  169.8985 O.3     1  UNL1       -0.3947
     31 C         140.1799  140.4743  170.4769 C.3     1  UNL1        0.5892
     32 F         140.6963  141.0281  171.7717 F       1  UNL1       -0.1252
     33 F         139.7494  139.3152  171.3259 F       1  UNL1       -0.1252
     34 O         139.5736  139.6782  169.3595 O.3     1  UNL1       -0.3948
     35 C         139.7864  144.6555  164.6765 C.3     1  UNL1        0.2016
     36 C         138.3225  144.5862  164.9965 C.3     1  UNL1        0.4160
     37 F         136.8587  144.5169  165.3165 F       1  UNL1       -0.1682
     38 F         138.5441  145.4552  166.1988 F       1  UNL1       -0.1682
     39 F         138.1008  143.7171  163.7942 F       1  UNL1       -0.1682
@<TRIPOS>BOND
     1    19    20    1
     2    20     7    1
     3     7     8   ar
     4     8     9   ar
     5     9     2    1
     6     2     3   ar
     7     3     4   ar
     8     4     1    1
     9     1    21    1
    10    21    22    2
    11    21    23   am
    12    23    35    1
    13    35    36    1
    14    36    37    1
    15    36    38    1
    16    36    39    1
    17    23    24    1
    18    24    25   ar
    19    25    26   ar
    20    26    27   ar
    21    27    28   ar
    22    28    29   ar
    23    28    30    1
    24    30    31    1
    25    31    32    1
    26    31    33    1
    27    31    34    1
    28     4     5   ar
    29     5     6   ar
    30     9    10   ar
    31    10    11   ar
    32    11    12   ar
    33    12    13    1
    34    13    14   ar
    35    14    15   ar
    36    15    16   ar
    37    16    17    1
    38    16    18   ar
    39    12     7   ar
    40    18    13   ar
    41     6     2   ar
    42    29    24   ar
    43    34    27    1
@<TRIPOS>MOLECULE
*****
 39 43 0 0 0
SMALL
GASTEIGER

@<TRIPOS>ATOM
      1 C         137.7560  140.1580  162.9413 C.3     1  UNL1        0.2141
      2 C         138.2502  141.6238  159.3814 C.ar    1  UNL1        0.1233
      3 C         138.3157  141.7574  160.8740 C.ar    1  UNL1        0.1181
      4 N         137.8512  140.4644  161.4760 N.ar    1  UNL1       -0.2208
      5 N         137.4986  139.5317  160.3554 N.ar    1  UNL1       -0.0633
      6 N         137.7452  140.2482  159.0609 N.ar    1  UNL1       -0.1287
      7 C         139.9899  144.7994  157.7570 C.ar    1  UNL1        0.1547
      8 C         139.6161  143.7430  158.7540 C.ar    1  UNL1        0.0400
      9 C         138.6241  142.6802  158.3843 C.ar    1  UNL1        0.0241
     10 C         138.0060  142.6740  157.0176 C.ar    1  UNL1        0.0033
     11 C         138.3799  143.7305  156.0206 C.ar    1  UNL1        0.0207
     12 C         139.3718  144.7931  156.3903 C.ar    1  UNL1        0.0994
     13 N         139.7456  145.8496  155.3932 N.ar    1  UNL1       -0.2839
     14 C         140.6223  145.6571  154.1915 C.ar    1  UNL1        0.1826
     15 N         140.7269  146.9726  153.4784 N.ar    1  UNL1       -0.2280
     16 C         139.9147  147.9782  154.2394 C.ar    1  UNL1        0.0786
     17 C         139.7399  149.4240  153.8801 C.3     1  UNL1        0.0538
     18 C         139.3083  147.2842  155.4228 C.ar    1  UNL1        0.0963
     19 C         142.3602  145.8398  157.5353 C.3     1  UNL1        0.2525
     20 O         140.9819  145.8621  158.1266 O.3     1  UNL1       -0.4700
     21 C         138.7050  140.8049  163.9060 C.2     1  UNL1        0.2545
     22 O         138.2715  142.0059  164.6933 O.2     1  UNL1       -0.2724
     23 N         140.0876  140.2509  164.0835 N.am    1  UNL1       -0.2487
     24 C         141.0367  140.8979  165.0483 C.ar    1  UNL1        0.0574
     25 C         141.9984  141.9435  164.5671 C.ar    1  UNL1        0.0182
     26 C         142.9474  142.5905  165.5319 C.ar    1  UNL1        0.0417
     27 C         142.9347  142.1917  166.9779 C.ar    1  UNL1        0.1818
     28 C         141.9729  141.1461  167.4591 C.ar    1  UNL1        0.1829
     29 C         141.0239  140.4991  166.4943 C.ar    1  UNL1        0.0553
     30 O         142.1899  140.9592  168.9315 O.3     1  UNL1       -0.3947
     31 C         143.2857  141.8895  169.3603 C.3     1  UNL1        0.5892
     32 F         143.0438  141.2962  170.7166 F       1  UNL1       -0.1252
     33 F         144.3309  142.6956  170.0726 F       1  UNL1       -0.1252
     34 O         143.7460  142.6512  168.1529 O.3     1  UNL1       -0.3948
     35 C         140.5212  139.0500  163.2963 C.3     1  UNL1        0.2016
     36 C         140.9030  137.7852  164.0068 C.3     1  UNL1        0.4160
     37 F         141.2848  136.5206  164.7173 F       1  UNL1       -0.1682
     38 F         142.3535  138.1094  163.8043 F       1  UNL1       -0.1682
     39 F         139.4526  137.4611  164.2093 F       1  UNL1       -0.1682
@<TRIPOS>BOND
     1    19    20    1
     2    20     7    1
     3     7     8   ar
     4     8     9   ar
     5     9     2    1
     6     2     3   ar
     7     3     4   ar
     8     4     1    1
     9     1    21    1
    10    21    22    2
    11    21    23   am
    12    23    35    1
    13    35    36    1
    14    36    37    1
    15    36    38    1
    16    36    39    1
    17    23    24    1
    18    24    25   ar
    19    25    26   ar
    20    26    27   ar
    21    27    28   ar
    22    28    29   ar
    23    28    30    1
    24    30    31    1
    25    31    32    1
    26    31    33    1
    27    31    34    1
    28     4     5   ar
    29     5     6   ar
    30     9    10   ar
    31    10    11   ar
    32    11    12   ar
    33    12    13    1
    34    13    14   ar
    35    14    15   ar
    36    15    16   ar
    37    16    17    1
    38    16    18   ar
    39    12     7   ar
    40    18    13   ar
    41     6     2   ar
    42    29    24   ar
    43    34    27    1
@<TRIPOS>MOLECULE
*****
 39 43 0 0 0
SMALL
GASTEIGER

@<TRIPOS>ATOM
      1 C         140.8200  140.8421  160.6013 C.3     1  UNL1        0.2141
      2 C         142.1471  138.2110  158.0751 C.ar    1  UNL1        0.1233
      3 C         141.0324  138.8040  158.8849 C.ar    1  UNL1        0.1181
      4 N         141.5878  139.9616  159.6605 N.ar    1  UNL1       -0.2208
      5 N         143.0458  140.0840  159.3300 N.ar    1  UNL1       -0.0633
      6 N         143.3915  139.0021  158.3503 N.ar    1  UNL1       -0.1287
      7 C         142.9822  134.7907  156.2436 C.ar    1  UNL1        0.1547
      8 C         143.0925  135.9681  157.1664 C.ar    1  UNL1        0.0400
      9 C         142.0368  137.0336  157.1523 C.ar    1  UNL1        0.0241
     10 C         140.8708  136.9218  156.2153 C.ar    1  UNL1        0.0033
     11 C         140.7605  135.7444  155.2925 C.ar    1  UNL1        0.0207
     12 C         141.8162  134.6790  155.3066 C.ar    1  UNL1        0.0994
     13 N         141.7058  133.5016  154.3837 N.ar    1  UNL1       -0.2839
     14 C         141.9448  133.5165  152.9031 C.ar    1  UNL1        0.1826
     15 N         141.7238  132.1268  152.3838 N.ar    1  UNL1       -0.2280
     16 C         141.3481  131.2528  153.5436 C.ar    1  UNL1        0.0786
     17 C         141.0381  129.7867  153.4787 C.3     1  UNL1        0.0538
     18 C         141.3370  132.1026  154.7796 C.ar    1  UNL1        0.0963
     19 C         144.2880  132.9339  157.5071 C.3     1  UNL1        0.2525
     20 O         144.0378  133.7253  156.2577 O.3     1  UNL1       -0.4700
     21 C         140.6701  140.4503  162.0414 C.2     1  UNL1        0.2545
     22 O         141.7809  139.7241  162.7407 O.2     1  UNL1       -0.2724
     23 N         139.4095  140.7848  162.7824 N.am    1  UNL1       -0.2487
     24 C         139.2596  140.3929  164.2226 C.ar    1  UNL1        0.0574
     25 C         138.5723  139.1094  164.5830 C.ar    1  UNL1        0.0182
     26 C         138.4225  138.7176  166.0232 C.ar    1  UNL1        0.0417
     27 C         138.9600  139.6094  167.1029 C.ar    1  UNL1        0.1818
     28 C         139.6473  140.8930  166.7424 C.ar    1  UNL1        0.1829
     29 C         139.7972  141.2848  165.3023 C.ar    1  UNL1        0.0553
     30 O         140.0726  141.5642  168.0147 O.3     1  UNL1       -0.3947
     31 C         139.6481  140.6954  169.1614 C.3     1  UNL1        0.5892
     32 F         140.2744  141.7689  170.0014 F       1  UNL1       -0.1252
     33 F         139.3545  140.0511  170.4837 F       1  UNL1       -0.1252
     34 O         138.9605  139.4873  168.5980 O.3     1  UNL1       -0.3948
     35 C         138.2988  141.5109  162.0832 C.3     1  UNL1        0.2016
     36 C         137.8429  142.8482  162.5873 C.3     1  UNL1        0.4160
     37 F         137.3870  144.1854  163.0913 F       1  UNL1       -0.1682
     38 F         136.8739  142.1701  163.5099 F       1  UNL1       -0.1682
     39 F         138.8118  143.5263  161.6647 F       1  UNL1       -0.1682
@<TRIPOS>BOND
     1    19    20    1
     2    20     7    1
     3     7     8   ar
     4     8     9   ar
     5     9     2    1
     6     2     3   ar
     7     3     4   ar
     8     4     1    1
     9     1    21    1
    10    21    22    2
    11    21    23   am
    12    23    35    1
    13    35    36    1
    14    36    37    1
    15    36    38    1
    16    36    39    1
    17    23    24    1
    18    24    25   ar
    19    25    26   ar
    20    26    27   ar
    21    27    28   ar
    22    28    29   ar
    23    28    30    1
    24    30    31    1
    25    31    32    1
    26    31    33    1
    27    31    34    1
    28     4     5   ar
    29     5     6   ar
    30     9    10   ar
    31    10    11   ar
    32    11    12   ar
    33    12    13    1
    34    13    14   ar
    35    14    15   ar
    36    15    16   ar
    37    16    17    1
    38    16    18   ar
    39    12     7   ar
    40    18    13   ar
    41     6     2   ar
    42    29    24   ar
    43    34    27    1
@<TRIPOS>MOLECULE
*****
 39 43 0 0 0
SMALL
GASTEIGER

@<TRIPOS>ATOM
      1 C         141.8858  140.4590  160.2318 C.3     1  UNL1        0.2141
      2 C         142.6490  137.7340  157.5751 C.ar    1  UNL1        0.1233
      3 C         141.8151  138.2684  158.7016 C.ar    1  UNL1        0.1181
      4 N         142.4039  139.5787  159.1333 N.ar    1  UNL1       -0.2208
      5 N         143.6018  139.8541  158.2736 N.ar    1  UNL1       -0.0633
      6 N         143.7533  138.7141  157.3106 N.ar    1  UNL1       -0.1287
      7 C         143.0276  133.9546  156.4249 C.ar    1  UNL1        0.1547
      8 C         143.2575  135.2429  157.1581 C.ar    1  UNL1        0.0400
      9 C         142.4190  136.4458  156.8419 C.ar    1  UNL1        0.0241
     10 C         141.3506  136.3605  155.7926 C.ar    1  UNL1        0.0033
     11 C         141.1206  135.0723  155.0595 C.ar    1  UNL1        0.0207
     12 C         141.9590  133.8694  155.3756 C.ar    1  UNL1        0.0994
     13 N         141.7290  132.5812  154.6423 N.ar    1  UNL1       -0.2839
     14 C         142.4851  132.1053  153.4375 C.ar    1  UNL1        0.1826
     15 N         141.9259  130.7727  153.0357 N.ar    1  UNL1       -0.2280
     16 C         140.8241  130.4249  153.9925 C.ar    1  UNL1        0.0786
     17 C         139.9904  129.1783  153.9615 C.3     1  UNL1        0.0538
     18 C         140.7025  131.5426  154.9853 C.ar    1  UNL1        0.0963
     19 C         144.8204  132.7858  157.8977 C.3     1  UNL1        0.2525
     20 O         143.8660  132.7518  156.7410 O.3     1  UNL1       -0.4700
     21 C         142.3538  140.2527  161.6419 C.2     1  UNL1        0.2545
     22 O         143.7985  140.4569  161.9902 O.2     1  UNL1       -0.2724
     23 N         141.3771  139.8423  162.7038 N.am    1  UNL1       -0.2487
     24 C         141.8452  139.6360  164.1140 C.ar    1  UNL1        0.0574
     25 C         142.5835  138.3837  164.4836 C.ar    1  UNL1        0.0182
     26 C         143.0515  138.1775  165.8937 C.ar    1  UNL1        0.0417
     27 C         142.7812  139.2236  166.9342 C.ar    1  UNL1        0.1818
     28 C         142.0428  140.4759  166.5646 C.ar    1  UNL1        0.1829
     29 C         141.5749  140.6821  165.1545 C.ar    1  UNL1        0.0553
     30 O         141.9232  141.3240  167.7960 O.3     1  UNL1       -0.3947
     31 C         142.5877  140.5958  168.9267 C.3     1  UNL1        0.5892
     32 F         142.1784  141.7941  169.7308 F       1  UNL1       -0.1252
     33 F         143.1665  140.1183  170.2254 F       1  UNL1       -0.1252
     34 O         143.1179  139.2977  168.3941 O.3     1  UNL1       -0.3948
     35 C         139.9325  139.6381  162.3556 C.3     1  UNL1        0.2016
     36 C         139.2314  138.3789  162.7718 C.3     1  UNL1        0.4160
     37 F         138.5303  137.1199  163.1879 F       1  UNL1       -0.1682
     38 F         140.1312  137.5815  161.8749 F       1  UNL1       -0.1682
     39 F         138.3316  139.1764  163.6686 F       1  UNL1       -0.1682
@<TRIPOS>BOND
     1    19    20    1
     2    20     7    1
     3     7     8   ar
     4     8     9   ar
     5     9     2    1
     6     2     3   ar
     7     3     4   ar
     8     4     1    1
     9     1    21    1
    10    21    22    2
    11    21    23   am
    12    23    35    1
    13    35    36    1
    14    36    37    1
    15    36    38    1
    16    36    39    1
    17    23    24    1
    18    24    25   ar
    19    25    26   ar
    20    26    27   ar
    21    27    28   ar
    22    28    29   ar
    23    28    30    1
    24    30    31    1
    25    31    32    1
    26    31    33    1
    27    31    34    1
    28     4     5   ar
    29     5     6   ar
    30     9    10   ar
    31    10    11   ar
    32    11    12   ar
    33    12    13    1
    34    13    14   ar
    35    14    15   ar
    36    15    16   ar
    37    16    17    1
    38    16    18   ar
    39    12     7   ar
    40    18    13   ar
    41     6     2   ar
    42    29    24   ar
    43    34    27    1
@<TRIPOS>MOLECULE
*****
 39 43 0 0 0
SMALL
GASTEIGER

@<TRIPOS>ATOM
      1 C         137.7266  138.8725  161.5151 C.3     1  UNL1        0.2141
      2 C         138.8141  141.1179  158.5417 C.ar    1  UNL1        0.1233
      3 C         138.1907  140.9476  159.8954 C.ar    1  UNL1        0.1181
      4 N         138.2406  139.4907  160.2488 N.ar    1  UNL1       -0.2208
      5 N         138.8948  138.7606  159.1135 N.ar    1  UNL1       -0.0633
      6 N         139.2492  139.7662  158.0584 N.ar    1  UNL1       -0.1287
      7 C         140.0331  144.7771  157.6065 C.ar    1  UNL1        0.1547
      8 C         139.8730  143.4824  158.3469 C.ar    1  UNL1        0.0400
      9 C         138.9741  142.4126  157.8014 C.ar    1  UNL1        0.0241
     10 C         138.2354  142.6375  156.5154 C.ar    1  UNL1        0.0033
     11 C         138.3955  143.9321  155.7750 C.ar    1  UNL1        0.0207
     12 C         139.2942  145.0019  156.3206 C.ar    1  UNL1        0.0994
     13 N         139.4543  146.2966  155.5801 N.ar    1  UNL1       -0.2839
     14 C         140.1779  146.4850  154.2798 C.ar    1  UNL1        0.1826
     15 N         140.0896  147.9350  153.9061 N.ar    1  UNL1       -0.2280
     16 C         139.3114  148.6428  154.9755 C.ar    1  UNL1        0.0786
     17 C         138.9836  150.1062  155.0050 C.3     1  UNL1        0.0538
     18 C         138.9188  147.6302  156.0101 C.ar    1  UNL1        0.0963
     19 C         142.3443  145.9624  157.6606 C.3     1  UNL1        0.2525
     20 O         140.9318  145.8469  158.1521 O.3     1  UNL1       -0.4700
     21 C         138.5882  138.8509  162.7427 C.2     1  UNL1        0.2545
     22 O         139.4719  137.6704  163.0181 O.2     1  UNL1       -0.2724
     23 N         138.5663  140.0096  163.6950 N.am    1  UNL1       -0.2487
     24 C         139.4280  139.9880  164.9226 C.ar    1  UNL1        0.0574
     25 C         140.9213  140.0399  164.7917 C.ar    1  UNL1        0.0182
     26 C         141.7830  140.0182  166.0193 C.ar    1  UNL1        0.0417
     27 C         141.1513  139.9447  167.3778 C.ar    1  UNL1        0.1818
     28 C         139.6579  139.8928  167.5087 C.ar    1  UNL1        0.1829
     29 C         138.7963  139.9144  166.2811 C.ar    1  UNL1        0.0553
     30 O         139.3227  139.8244  168.9692 O.3     1  UNL1       -0.3947
     31 C         140.6090  139.8341  169.7410 C.3     1  UNL1        0.5892
     32 F         139.7083  139.7585  170.9381 F       1  UNL1       -0.1252
     33 F         141.7068  139.8280  170.7629 F       1  UNL1       -0.1252
     34 O         141.7391  139.9084  168.7575 O.3     1  UNL1       -0.3948
     35 C         137.6827  141.1900  163.4196 C.3     1  UNL1        0.2016
     36 C         138.1943  142.5806  163.6533 C.3     1  UNL1        0.4160
     37 F         138.7059  143.9712  163.8870 F       1  UNL1       -0.1682
     38 F         139.2089  142.3902  162.5651 F       1  UNL1       -0.1682
     39 F         137.1797  142.7710  164.7415 F       1  UNL1       -0.1682
@<TRIPOS>BOND
     1    19    20    1
     2    20     7    1
     3     7     8   ar
     4     8     9   ar
     5     9     2    1
     6     2     3   ar
     7     3     4   ar
     8     4     1    1
     9     1    21    1
    10    21    22    2
    11    21    23   am
    12    23    35    1
    13    35    36    1
    14    36    37    1
    15    36    38    1
    16    36    39    1
    17    23    24    1
    18    24    25   ar
    19    25    26   ar
    20    26    27   ar
    21    27    28   ar
    22    28    29   ar
    23    28    30    1
    24    30    31    1
    25    31    32    1
    26    31    33    1
    27    31    34    1
    28     4     5   ar
    29     5     6   ar
    30     9    10   ar
    31    10    11   ar
    32    11    12   ar
    33    12    13    1
    34    13    14   ar
    35    14    15   ar
    36    15    16   ar
    37    16    17    1
    38    16    18   ar
    39    12     7   ar
    40    18    13   ar
    41     6     2   ar
    42    29    24   ar
    43    34    27    1
@<TRIPOS>MOLECULE
*****
 39 43 0 0 0
SMALL
GASTEIGER

@<TRIPOS>ATOM
      1 C         143.8874  138.7015  162.7462 C.3     1  UNL1        0.2141
      2 C         142.7674  140.5973  159.5498 C.ar    1  UNL1        0.1233
      3 C         142.7422  140.4087  161.0377 C.ar    1  UNL1        0.1181
      4 N         143.6227  139.2413  161.3720 N.ar    1  UNL1       -0.2208
      5 N         144.1922  138.7084  160.0907 N.ar    1  UNL1       -0.0633
      6 N         143.6635  139.5465  158.9645 N.ar    1  UNL1       -0.1287
      7 C         140.4618  143.7254  158.7439 C.ar    1  UNL1        0.1547
      8 C         141.2027  142.6710  159.5116 C.ar    1  UNL1        0.0400
      9 C         142.0265  141.6517  158.7821 C.ar    1  UNL1        0.0241
     10 C         142.1094  141.6866  157.2848 C.ar    1  UNL1        0.0033
     11 C         141.3685  142.7410  156.5171 C.ar    1  UNL1        0.0207
     12 C         140.5448  143.7603  157.2466 C.ar    1  UNL1        0.0994
     13 N         139.8038  144.8147  156.4788 N.ar    1  UNL1       -0.2839
     14 C         138.5154  144.6223  155.7354 C.ar    1  UNL1        0.1826
     15 N         138.1366  145.9352  155.1168 N.ar    1  UNL1       -0.2280
     16 C         139.1911  146.9391  155.4778 C.ar    1  UNL1        0.0786
     17 C         139.2115  148.3821  155.0688 C.3     1  UNL1        0.0538
     18 C         140.2215  146.2465  156.3195 C.ar    1  UNL1        0.0963
     19 C         140.2727  145.6129  160.5191 C.3     1  UNL1        0.2525
     20 O         139.6380  144.7447  159.4734 O.3     1  UNL1       -0.4700
     21 C         143.3453  139.4146  163.9493 C.2     1  UNL1        0.2545
     22 O         143.9240  140.7355  164.3623 O.2     1  UNL1       -0.2724
     23 N         142.2244  138.8070  164.7395 N.am    1  UNL1       -0.2487
     24 C         141.6823  139.5202  165.9427 C.ar    1  UNL1        0.0574
     25 C         140.4392  140.3513  165.8250 C.ar    1  UNL1        0.0182
     26 C         139.8971  141.0644  167.0281 C.ar    1  UNL1        0.0417
     27 C         140.5982  140.9464  168.3490 C.ar    1  UNL1        0.1818
     28 C         141.8413  140.1153  168.4667 C.ar    1  UNL1        0.1829
     29 C         142.3833  139.4022  167.2635 C.ar    1  UNL1        0.0553
     30 O         142.3127  140.1854  169.8889 O.3     1  UNL1       -0.3947
     31 C         141.3609  141.0597  170.6503 C.3     1  UNL1        0.5892
     32 F         142.2610  140.7590  171.8119 F       1  UNL1       -0.1252
     33 F         140.5973  141.8712  171.6544 F       1  UNL1       -0.1252
     34 O         140.3012  141.5301  169.6985 O.3     1  UNL1       -0.3948
     35 C         141.6457  137.4862  164.3266 C.3     1  UNL1        0.2016
     36 C         140.2588  137.4196  163.7589 C.3     1  UNL1        0.4160
     37 F         138.8720  137.3530  163.1913 F       1  UNL1       -0.1682
     38 F         140.7994  137.7498  162.3993 F       1  UNL1       -0.1682
     39 F         139.7182  137.0894  165.1186 F       1  UNL1       -0.1682
@<TRIPOS>BOND
     1    19    20    1
     2    20     7    1
     3     7     8   ar
     4     8     9   ar
     5     9     2    1
     6     2     3   ar
     7     3     4   ar
     8     4     1    1
     9     1    21    1
    10    21    22    2
    11    21    23   am
    12    23    35    1
    13    35    36    1
    14    36    37    1
    15    36    38    1
    16    36    39    1
    17    23    24    1
    18    24    25   ar
    19    25    26   ar
    20    26    27   ar
    21    27    28   ar
    22    28    29   ar
    23    28    30    1
    24    30    31    1
    25    31    32    1
    26    31    33    1
    27    31    34    1
    28     4     5   ar
    29     5     6   ar
    30     9    10   ar
    31    10    11   ar
    32    11    12   ar
    33    12    13    1
    34    13    14   ar
    35    14    15   ar
    36    15    16   ar
    37    16    17    1
    38    16    18   ar
    39    12     7   ar
    40    18    13   ar
    41     6     2   ar
    42    29    24   ar
    43    34    27    1
@<TRIPOS>MOLECULE
*****
 39 43 0 0 0
SMALL
GASTEIGER

@<TRIPOS>ATOM
      1 C         139.8056  137.9951  163.0409 C.3     1  UNL1        0.2141
      2 C         138.9574  140.4451  160.1524 C.ar    1  UNL1        0.1233
      3 C         139.9167  139.8991  161.1681 C.ar    1  UNL1        0.1181
      4 N         139.2169  138.8126  161.9295 N.ar    1  UNL1       -0.2208
      5 N         137.8252  138.6870  161.3843 N.ar    1  UNL1       -0.0633
      6 N         137.6648  139.6960  160.2860 N.ar    1  UNL1       -0.1287
      7 C         139.8634  144.0228  158.6933 C.ar    1  UNL1        0.1547
      8 C         139.5798  142.9212  159.6709 C.ar    1  UNL1        0.0400
      9 C         139.2410  141.5468  159.1747 C.ar    1  UNL1        0.0241
     10 C         139.1859  141.2740  157.7007 C.ar    1  UNL1        0.0033
     11 C         139.4695  142.3757  156.7231 C.ar    1  UNL1        0.0207
     12 C         139.8082  143.7500  157.2193 C.ar    1  UNL1        0.0994
     13 N         140.0919  144.8517  156.2415 N.ar    1  UNL1       -0.2839
     14 C         141.2225  144.8869  155.2566 C.ar    1  UNL1        0.1826
     15 N         141.1240  146.1685  154.4834 N.ar    1  UNL1       -0.2280
     16 C         139.9323  146.9254  154.9906 C.ar    1  UNL1        0.0786
     17 C         139.4614  148.2615  154.4976 C.3     1  UNL1        0.0538
     18 C         139.2945  146.1115  156.0771 C.ar    1  UNL1        0.0963
     19 C         140.3055  145.6582  160.6630 C.3     1  UNL1        0.2525
     20 O         140.2022  145.3972  159.1895 O.3     1  UNL1       -0.4700
     21 C         140.5818  138.6657  164.1353 C.2     1  UNL1        0.2545
     22 O         142.0588  138.8800  163.9843 O.2     1  UNL1       -0.2724
     23 N         139.8812  139.1221  165.3806 N.am    1  UNL1       -0.2487
     24 C         140.6576  139.7927  166.4750 C.ar    1  UNL1        0.0574
     25 C         141.8968  139.1467  167.0197 C.ar    1  UNL1        0.0182
     26 C         142.6731  139.8174  168.1141 C.ar    1  UNL1        0.0417
     27 C         142.2101  141.1341  168.6636 C.ar    1  UNL1        0.1818
     28 C         140.9709  141.7801  168.1188 C.ar    1  UNL1        0.1829
     29 C         140.1946  141.1094  167.0245 C.ar    1  UNL1        0.0553
     30 O         140.7600  143.0709  168.8531 O.3     1  UNL1       -0.3947
     31 C         141.8689  143.2227  169.8517 C.3     1  UNL1        0.5892
     32 F         141.1741  144.5077  170.1925 F       1  UNL1       -0.1252
     33 F         142.8325  143.6431  170.9215 F       1  UNL1       -0.1252
     34 O         142.7652  142.0257  169.7346 O.3     1  UNL1       -0.3948
     35 C         138.4043  138.9079  165.5316 C.3     1  UNL1        0.2016
     36 C         137.8908  137.8650  166.4796 C.3     1  UNL1        0.4160
     37 F         137.3772  136.8222  167.4277 F       1  UNL1       -0.1682
     38 F         138.2723  136.7908  165.5047 F       1  UNL1       -0.1682
     39 F         137.5092  138.9392  167.4545 F       1  UNL1       -0.1682
@<TRIPOS>BOND
     1    19    20    1
     2    20     7    1
     3     7     8   ar
     4     8     9   ar
     5     9     2    1
     6     2     3   ar
     7     3     4   ar
     8     4     1    1
     9     1    21    1
    10    21    22    2
    11    21    23   am
    12    23    35    1
    13    35    36    1
    14    36    37    1
    15    36    38    1
    16    36    39    1
    17    23    24    1
    18    24    25   ar
    19    25    26   ar
    20    26    27   ar
    21    27    28   ar
    22    28    29   ar
    23    28    30    1
    24    30    31    1
    25    31    32    1
    26    31    33    1
    27    31    34    1
    28     4     5   ar
    29     5     6   ar
    30     9    10   ar
    31    10    11   ar
    32    11    12   ar
    33    12    13    1
    34    13    14   ar
    35    14    15   ar
    36    15    16   ar
    37    16    17    1
    38    16    18   ar
    39    12     7   ar
    40    18    13   ar
    41     6     2   ar
    42    29    24   ar
    43    34    27    1
