@<TRIPOS>MOLECULE
*****
 37 39 0 0 0
SMALL
GASTEIGER

@<TRIPOS>ATOM
      1 C         144.1139  142.0432  158.9134 C.3     1  UNL1        0.1459
      2 O         144.2904  142.8664  157.6720 O.3     1  UNL1       -0.3813
      3 H         144.4969  143.7818  157.9177 H       1  UNL1        0.2105
      4 C         143.7865  140.5834  158.8050 C.3     1  UNL1        0.1034
      5 C         142.1509  138.3738  162.3677 C.3     1  UNL1        0.1687
      6 C         143.6288  138.3959  162.1126 C.3     1  UNL1        0.0609
      7 C         144.1740  139.1325  160.9250 C.3     1  UNL1        0.0759
      8 N         143.2413  139.8469  159.9925 N.3     1  UNL1       -0.2704
      9 C         141.7633  139.8248  160.2476 C.3     1  UNL1        0.0759
     10 C         141.2181  139.0882  161.4351 C.3     1  UNL1        0.0609
     11 O         141.6057  137.6373  163.5552 O.3     1  UNL1       -0.4782
     12 C         142.6308  139.7782  168.1775 C.3     1  UNL1        0.0329
     13 C         141.6612  139.4684  167.0757 C.ar    1  UNL1        0.0023
     14 C         140.2347  139.9194  167.1832 C.ar    1  UNL1        0.0547
     15 CL        139.7777  140.6801  168.3925 Cl      1  UNL1       -0.0825
     16 C         139.2651  139.6096  166.0814 C.ar    1  UNL1        0.0142
     17 C         139.7221  138.8490  164.8720 C.ar    1  UNL1        0.0386
     18 C         141.1486  138.3980  164.7645 C.ar    1  UNL1        0.1485
     19 C         142.1182  138.7077  165.8664 C.ar    1  UNL1        0.0884
     20 CL        143.5448  138.2568  165.7588 Cl      1  UNL1       -0.0794
     21 C         144.2648  142.6798  160.2633 C.3     1  UNL1        0.1204
     22 N         143.0566  142.9167  161.1200 N.am    1  UNL1       -0.2985
     23 C         143.0975  143.9523  162.2044 C.2     1  UNL1        0.2473
     24 O         144.3466  144.7510  162.4319 O.2     1  UNL1       -0.2701
     25 H         142.2368  142.3925  160.9707 H       1  UNL1        0.1498
     26 C         141.8892  144.1893  163.0611 C.ar    1  UNL1        0.0744
     27 C         140.8594  145.1967  162.6433 C.ar    1  UNL1        0.0792
     28 N         139.6512  145.4336  163.5001 N.ar    1  UNL1       -0.3198
     29 C         139.4728  144.6632  164.7746 C.ar    1  UNL1        0.2577
     30 O         138.2646  144.9001  165.6314 O.2     1  UNL1       -0.2672
     31 C         140.5026  143.6558  165.1924 C.ar    1  UNL1        0.0646
     32 C         141.7108  143.4188  164.3357 C.ar    1  UNL1        0.0819
     33 H         138.9753  146.0948  163.2259 H       1  UNL1        0.1690
     34 C         142.7407  142.4114  164.7535 C.3     1  UNL1        0.4189
     35 F         143.7705  141.4040  165.1714 F       1  UNL1       -0.1659
     36 F         142.0104  141.3476  163.9887 F       1  UNL1       -0.1659
     37 F         143.4710  143.4752  165.5183 F       1  UNL1       -0.1659
@<TRIPOS>BOND
     1    12    13    1
     2    13    14   ar
     3    14    15    1
     4    14    16   ar
     5    16    17   ar
     6    17    18   ar
     7    18    11    1
     8    11     5    1
     9     5     6    1
    10     6     7    1
    11     7     8    1
    12     8     4    1
    13     4     1    1
    14     1     2    1
    15     1    21    1
    16    21    22    1
    17    22    23   am
    18    23    24    2
    19    23    26    1
    20    26    27   ar
    21    27    28   ar
    22    28    29   ar
    23    29    30    2
    24    29    31   ar
    25    31    32   ar
    26    32    34    1
    27    34    35    1
    28    34    36    1
    29    34    37    1
    30     8     9    1
    31     9    10    1
    32    18    19   ar
    33    19    20    1
    34    19    13   ar
    35    10     5    1
    36    32    26   ar
    37     2     3    1
    38    22    25    1
    39    28    33    1
@<TRIPOS>MOLECULE
*****
 37 39 0 0 0
SMALL
GASTEIGER

@<TRIPOS>ATOM
      1 C         142.2257  142.0474  168.6841 C.3     1  UNL1        0.1459
      2 O         141.5544  143.0848  169.5344 O.3     1  UNL1       -0.3813
      3 H         141.9637  143.9493  169.3732 H       1  UNL1        0.2105
      4 C         141.7743  140.6184  168.7482 C.3     1  UNL1        0.1034
      5 C         141.7476  138.0978  165.0205 C.3     1  UNL1        0.1687
      6 C         142.9677  138.1346  165.8922 C.3     1  UNL1        0.0609
      7 C         142.9766  138.9749  167.1348 C.3     1  UNL1        0.0759
      8 N         141.7654  139.7782  167.5056 N.3     1  UNL1       -0.2704
      9 C         140.5453  139.7414  166.6339 C.3     1  UNL1        0.0759
     10 C         140.5364  138.9012  165.3914 C.3     1  UNL1        0.0609
     11 O         141.7387  137.2576  163.7779 O.3     1  UNL1       -0.4782
     12 C         140.2969  139.2310  159.1924 C.3     1  UNL1        0.0329
     13 C         141.3769  138.8561  160.1635 C.ar    1  UNL1        0.0023
     14 C         142.8159  139.0930  159.8130 C.ar    1  UNL1        0.0547
     15 CL        143.1751  139.7048  158.4913 Cl      1  UNL1       -0.0825
     16 C         143.8959  138.7181  160.7841 C.ar    1  UNL1        0.0142
     17 C         143.5369  138.1064  162.1057 C.ar    1  UNL1        0.0386
     18 C         142.0978  137.8695  162.4562 C.ar    1  UNL1        0.1485
     19 C         141.0178  138.2443  161.4851 C.ar    1  UNL1        0.0884
     20 CL        139.5787  138.0074  161.8357 Cl      1  UNL1       -0.0794
     21 C         143.3483  142.4391  167.7695 C.3     1  UNL1        0.1204
     22 N         143.1127  142.5352  166.2913 N.am    1  UNL1       -0.2985
     23 C         144.0395  143.3464  165.4352 C.2     1  UNL1        0.2473
     24 O         145.2020  144.0615  166.0575 O.2     1  UNL1       -0.2701
     25 H         142.3497  142.0658  165.8829 H       1  UNL1        0.1498
     26 C         143.8039  143.4425  163.9570 C.ar    1  UNL1        0.0744
     27 C         143.1069  144.6412  163.3850 C.ar    1  UNL1        0.0792
     28 N         142.8712  144.7373  161.9068 N.ar    1  UNL1       -0.3198
     29 C         143.3326  143.6347  161.0005 C.ar    1  UNL1        0.2577
     30 O         143.0970  143.7308  159.5222 O.2     1  UNL1       -0.2672
     31 C         144.0296  142.4360  161.5725 C.ar    1  UNL1        0.0646
     32 C         144.2653  142.3399  163.0507 C.ar    1  UNL1        0.0819
     33 H         142.4138  145.5241  161.5313 H       1  UNL1        0.1690
     34 C         144.9623  141.1411  163.6227 C.3     1  UNL1        0.4189
     35 F         145.6594  139.9424  164.1946 F       1  UNL1       -0.1659
     36 F         143.6343  140.5202  163.9399 F       1  UNL1       -0.1659
     37 F         146.2904  141.7621  163.3055 F       1  UNL1       -0.1659
@<TRIPOS>BOND
     1    12    13    1
     2    13    14   ar
     3    14    15    1
     4    14    16   ar
     5    16    17   ar
     6    17    18   ar
     7    18    11    1
     8    11     5    1
     9     5     6    1
    10     6     7    1
    11     7     8    1
    12     8     4    1
    13     4     1    1
    14     1     2    1
    15     1    21    1
    16    21    22    1
    17    22    23   am
    18    23    24    2
    19    23    26    1
    20    26    27   ar
    21    27    28   ar
    22    28    29   ar
    23    29    30    2
    24    29    31   ar
    25    31    32   ar
    26    32    34    1
    27    34    35    1
    28    34    36    1
    29    34    37    1
    30     8     9    1
    31     9    10    1
    32    18    19   ar
    33    19    20    1
    34    19    13   ar
    35    10     5    1
    36    32    26   ar
    37     2     3    1
    38    22    25    1
    39    28    33    1
@<TRIPOS>MOLECULE
*****
 37 39 0 0 0
SMALL
GASTEIGER

@<TRIPOS>ATOM
      1 C         138.0791  140.9041  158.2043 C.3     1  UNL1        0.1459
      2 O         136.8109  140.7668  157.4152 O.3     1  UNL1       -0.3813
      3 H         136.3711  141.6294  157.3571 H       1  UNL1        0.2105
      4 C         138.9495  139.7054  158.4398 C.3     1  UNL1        0.1034
      5 C         139.4029  138.0351  162.5936 C.3     1  UNL1        0.1687
      6 C         138.0939  138.6269  162.1620 C.3     1  UNL1        0.0609
      7 C         137.9428  139.1837  160.7773 C.3     1  UNL1        0.0759
      8 N         139.1006  139.1487  159.8244 N.3     1  UNL1       -0.2704
      9 C         140.4096  138.5568  160.2560 C.3     1  UNL1        0.0759
     10 C         140.5607  138.0000  161.6406 C.3     1  UNL1        0.0609
     11 O         139.5540  137.4783  163.9782 O.3     1  UNL1       -0.4782
     12 C         139.8352  140.8406  167.9298 C.3     1  UNL1        0.0329
     13 C         140.5073  139.8989  166.9752 C.ar    1  UNL1        0.0023
     14 C         141.9920  139.6965  167.0417 C.ar    1  UNL1        0.0547
     15 CL        142.8048  140.4360  168.0629 Cl      1  UNL1       -0.0825
     16 C         142.6642  138.7548  166.0870 C.ar    1  UNL1        0.0142
     17 C         141.8515  138.0154  165.0659 C.ar    1  UNL1        0.0386
     18 C         140.3667  138.2177  164.9994 C.ar    1  UNL1        0.1485
     19 C         139.6946  139.1595  165.9540 C.ar    1  UNL1        0.0884
     20 CL        138.2098  139.3618  165.8875 Cl      1  UNL1       -0.0794
     21 C         138.4769  142.2403  158.7580 C.3     1  UNL1        0.1204
     22 N         139.5066  142.3251  159.8455 N.am    1  UNL1       -0.2985
     23 C         139.0970  142.7016  161.2385 C.2     1  UNL1        0.2473
     24 O         137.6578  142.9933  161.5440 O.2     1  UNL1       -0.2701
     25 H         140.4512  142.1336  159.6449 H       1  UNL1        0.1498
     26 C         140.1268  142.7863  162.3259 C.ar    1  UNL1        0.0744
     27 C         140.7030  141.5319  162.9126 C.ar    1  UNL1        0.0792
     28 N         141.7327  141.6166  164.0000 N.ar    1  UNL1       -0.3198
     29 C         142.1862  142.9558  164.5008 C.ar    1  UNL1        0.2577
     30 O         143.2159  143.0406  165.5882 O.2     1  UNL1       -0.2672
     31 C         141.6099  144.2103  163.9141 C.ar    1  UNL1        0.0646
     32 C         140.5802  144.1255  162.8267 C.ar    1  UNL1        0.0819
     33 H         142.1109  140.7932  164.3850 H       1  UNL1        0.1690
     34 C         140.0040  145.3801  162.2400 C.3     1  UNL1        0.4189
     35 F         139.4277  146.6346  161.6534 F       1  UNL1       -0.1659
     36 F         141.0871  145.3924  161.2024 F       1  UNL1       -0.1659
     37 F         138.9209  145.3677  163.2776 F       1  UNL1       -0.1659
@<TRIPOS>BOND
     1    12    13    1
     2    13    14   ar
     3    14    15    1
     4    14    16   ar
     5    16    17   ar
     6    17    18   ar
     7    18    11    1
     8    11     5    1
     9     5     6    1
    10     6     7    1
    11     7     8    1
    12     8     4    1
    13     4     1    1
    14     1     2    1
    15     1    21    1
    16    21    22    1
    17    22    23   am
    18    23    24    2
    19    23    26    1
    20    26    27   ar
    21    27    28   ar
    22    28    29   ar
    23    29    30    2
    24    29    31   ar
    25    31    32   ar
    26    32    34    1
    27    34    35    1
    28    34    36    1
    29    34    37    1
    30     8     9    1
    31     9    10    1
    32    18    19   ar
    33    19    20    1
    34    19    13   ar
    35    10     5    1
    36    32    26   ar
    37     2     3    1
    38    22    25    1
    39    28    33    1
@<TRIPOS>MOLECULE
*****
 37 39 0 0 0
SMALL
GASTEIGER

@<TRIPOS>ATOM
      1 C         141.2531  138.9421  160.2105 C.3     1  UNL1        0.1459
      2 O         140.0964  138.4205  159.4105 O.3     1  UNL1       -0.3813
      3 H         139.6579  139.1577  158.9575 H       1  UNL1        0.2105
      4 C         142.1001  137.9960  161.0089 C.3     1  UNL1        0.1034
      5 C         142.5906  138.6074  165.4401 C.3     1  UNL1        0.1687
      6 C         141.3709  137.9144  164.9091 C.3     1  UNL1        0.0609
      7 C         141.2074  137.7106  163.4320 C.3     1  UNL1        0.0759
      8 N         142.2636  138.1998  162.4860 N.3     1  UNL1       -0.2704
      9 C         143.4833  138.8928  163.0170 C.3     1  UNL1        0.0759
     10 C         143.6469  139.0966  164.4940 C.3     1  UNL1        0.0609
     11 O         142.7541  138.8112  166.9171 O.3     1  UNL1       -0.4782
     12 C         141.3555  141.3578  171.2251 C.3     1  UNL1        0.0329
     13 C         141.4674  141.2970  169.7306 C.ar    1  UNL1        0.0023
     14 C         140.9920  142.4487  168.8954 C.ar    1  UNL1        0.0547
     15 CL        140.4046  143.6612  169.5548 Cl      1  UNL1       -0.0825
     16 C         141.1039  142.3879  167.4008 C.ar    1  UNL1        0.0142
     17 C         141.6913  141.1754  166.7414 C.ar    1  UNL1        0.0386
     18 C         142.1667  140.0237  167.5766 C.ar    1  UNL1        0.1485
     19 C         142.0548  140.0845  169.0711 C.ar    1  UNL1        0.0884
     20 CL        142.5303  138.9328  169.9063 Cl      1  UNL1       -0.0794
     21 C         141.5627  140.4098  160.2121 C.3     1  UNL1        0.1204
     22 N         141.1731  141.2572  161.3869 N.am    1  UNL1       -0.2985
     23 C         139.9097  142.0646  161.3431 C.2     1  UNL1        0.2473
     24 O         139.0360  142.0246  160.1245 O.2     1  UNL1       -0.2701
     25 H         141.7465  141.2835  162.1867 H       1  UNL1        0.1498
     26 C         139.5200  142.9120  162.5179 C.ar    1  UNL1        0.0744
     27 C         139.9423  144.3500  162.5783 C.ar    1  UNL1        0.0792
     28 N         139.5526  145.1974  163.7530 N.ar    1  UNL1       -0.3198
     29 C         138.7407  144.6068  164.8674 C.ar    1  UNL1        0.2577
     30 O         138.3510  145.4542  166.0422 O.2     1  UNL1       -0.2672
     31 C         138.3184  143.1687  164.8070 C.ar    1  UNL1        0.0646
     32 C         138.7081  142.3213  163.6322 C.ar    1  UNL1        0.0819
     33 H         139.8298  146.1412  163.7927 H       1  UNL1        0.1690
     34 C         138.2857  140.8832  163.5718 C.3     1  UNL1        0.4189
     35 F         137.8634  139.4452  163.5114 F       1  UNL1       -0.1659
     36 F         139.5507  140.4824  164.2712 F       1  UNL1       -0.1659
     37 F         137.0208  141.2841  162.8725 F       1  UNL1       -0.1659
@<TRIPOS>BOND
     1    12    13    1
     2    13    14   ar
     3    14    15    1
     4    14    16   ar
     5    16    17   ar
     6    17    18   ar
     7    18    11    1
     8    11     5    1
     9     5     6    1
    10     6     7    1
    11     7     8    1
    12     8     4    1
    13     4     1    1
    14     1     2    1
    15     1    21    1
    16    21    22    1
    17    22    23   am
    18    23    24    2
    19    23    26    1
    20    26    27   ar
    21    27    28   ar
    22    28    29   ar
    23    29    30    2
    24    29    31   ar
    25    31    32   ar
    26    32    34    1
    27    34    35    1
    28    34    36    1
    29    34    37    1
    30     8     9    1
    31     9    10    1
    32    18    19   ar
    33    19    20    1
    34    19    13   ar
    35    10     5    1
    36    32    26   ar
    37     2     3    1
    38    22    25    1
    39    28    33    1
@<TRIPOS>MOLECULE
*****
 37 39 0 0 0
SMALL
GASTEIGER

@<TRIPOS>ATOM
      1 C         138.1176  140.2986  159.4390 C.3     1  UNL1        0.1459
      2 O         138.5474  139.4337  158.2913 O.3     1  UNL1       -0.3813
      3 H         139.0713  139.9607  157.6679 H       1  UNL1        0.2105
      4 C         137.2901  139.7177  160.5471 C.3     1  UNL1        0.1034
      5 C         139.1765  138.8252  164.5339 C.3     1  UNL1        0.1687
      6 C         139.3375  137.8618  163.3955 C.3     1  UNL1        0.0609
      7 C         138.7087  138.1594  162.0665 C.3     1  UNL1        0.0759
      8 N         137.9189  139.4202  161.8760 N.3     1  UNL1       -0.2704
      9 C         137.7578  140.3836  163.0144 C.3     1  UNL1        0.0759
     10 C         138.3866  140.0862  164.3433 C.3     1  UNL1        0.0609
     11 O         139.8053  138.5278  165.8629 O.3     1  UNL1       -0.4782
     12 C         143.1089  142.3762  166.9925 C.3     1  UNL1        0.0329
     13 C         141.8839  141.5765  167.3240 C.ar    1  UNL1        0.0023
     14 C         141.0857  141.9013  168.5517 C.ar    1  UNL1        0.0547
     15 CL        141.5125  143.0258  169.4480 Cl      1  UNL1       -0.0825
     16 C         139.8607  141.1016  168.8832 C.ar    1  UNL1        0.0142
     17 C         139.4339  139.9771  167.9869 C.ar    1  UNL1        0.0386
     18 C         140.2321  139.6523  166.7592 C.ar    1  UNL1        0.1485
     19 C         141.4571  140.4520  166.4277 C.ar    1  UNL1        0.0884
     20 CL        142.2553  140.1271  165.1999 Cl      1  UNL1       -0.0794
     21 C         138.5153  141.7444  159.4787 C.3     1  UNL1        0.1204
     22 N         139.4888  142.2264  160.5131 N.am    1  UNL1       -0.2985
     23 C         140.0488  143.6151  160.4266 C.2     1  UNL1        0.2473
     24 O         139.6354  144.5220  159.3056 O.2     1  UNL1       -0.2701
     25 H         139.7601  141.6311  161.2489 H       1  UNL1        0.1498
     26 C         141.0223  144.0971  161.4610 C.ar    1  UNL1        0.0744
     27 C         142.4914  144.1131  161.1586 C.ar    1  UNL1        0.0792
     28 N         143.4649  144.5950  162.1930 N.ar    1  UNL1       -0.3198
     29 C         142.9693  145.0610  163.5299 C.ar    1  UNL1        0.2577
     30 O         143.9428  145.5429  164.5643 O.2     1  UNL1       -0.2672
     31 C         141.5002  145.0449  163.8323 C.ar    1  UNL1        0.0646
     32 C         140.5267  144.5630  162.7979 C.ar    1  UNL1        0.0819
     33 H         144.4291  144.6055  161.9945 H       1  UNL1        0.1690
     34 C         139.0576  144.5470  163.1004 C.3     1  UNL1        0.4189
     35 F         137.5885  144.5310  163.4029 F       1  UNL1       -0.1659
     36 F         138.8885  145.8331  162.3472 F       1  UNL1       -0.1659
     37 F         139.2267  143.2609  163.8536 F       1  UNL1       -0.1659
@<TRIPOS>BOND
     1    12    13    1
     2    13    14   ar
     3    14    15    1
     4    14    16   ar
     5    16    17   ar
     6    17    18   ar
     7    18    11    1
     8    11     5    1
     9     5     6    1
    10     6     7    1
    11     7     8    1
    12     8     4    1
    13     4     1    1
    14     1     2    1
    15     1    21    1
    16    21    22    1
    17    22    23   am
    18    23    24    2
    19    23    26    1
    20    26    27   ar
    21    27    28   ar
    22    28    29   ar
    23    29    30    2
    24    29    31   ar
    25    31    32   ar
    26    32    34    1
    27    34    35    1
    28    34    36    1
    29    34    37    1
    30     8     9    1
    31     9    10    1
    32    18    19   ar
    33    19    20    1
    34    19    13   ar
    35    10     5    1
    36    32    26   ar
    37     2     3    1
    38    22    25    1
    39    28    33    1
@<TRIPOS>MOLECULE
*****
 37 39 0 0 0
SMALL
GASTEIGER

@<TRIPOS>ATOM
      1 C         139.5556  138.5456  160.3932 C.3     1  UNL1        0.1459
      2 O         139.4512  138.3528  158.9094 O.3     1  UNL1       -0.3813
      3 H         140.3410  138.2957  158.5274 H       1  UNL1        0.2105
      4 C         138.3119  138.6642  161.2234 C.3     1  UNL1        0.1034
      5 C         138.6238  139.1606  165.6851 C.3     1  UNL1        0.1687
      6 C         138.8694  137.8190  165.0607 C.3     1  UNL1        0.0609
      7 C         138.7654  137.6536  163.5735 C.3     1  UNL1        0.0759
      8 N         138.4159  138.8297  162.7106 N.3     1  UNL1       -0.2704
      9 C         138.1703  140.1713  163.3349 C.3     1  UNL1        0.0759
     10 C         138.2743  140.3368  164.8221 C.3     1  UNL1        0.0609
     11 O         138.7278  139.3261  167.1722 O.3     1  UNL1       -0.4782
     12 C         140.8233  141.8870  171.1786 C.3     1  UNL1        0.0329
     13 C         140.9092  141.3920  169.7653 C.ar    1  UNL1        0.0023
     14 C         142.1288  141.6824  168.9417 C.ar    1  UNL1        0.0547
     15 CL        143.2625  142.4679  169.5315 Cl      1  UNL1       -0.0825
     16 C         142.2147  141.1874  167.5284 C.ar    1  UNL1        0.0142
     17 C         141.0811  140.4020  166.9385 C.ar    1  UNL1        0.0386
     18 C         139.8615  140.1116  167.7621 C.ar    1  UNL1        0.1485
     19 C         139.7756  140.6066  169.1754 C.ar    1  UNL1        0.0884
     20 CL        138.5559  140.3161  169.9990 Cl      1  UNL1       -0.0794
     21 C         140.9037  138.6199  161.0469 C.3     1  UNL1        0.1204
     22 N         141.4395  139.9412  161.5127 N.am    1  UNL1       -0.2985
     23 C         141.9137  140.1020  162.9266 C.2     1  UNL1        0.2473
     24 O         141.8520  138.9413  163.8748 O.2     1  UNL1       -0.2701
     25 H         141.4800  140.7030  160.8903 H       1  UNL1        0.1498
     26 C         142.4496  141.4233  163.3923 C.ar    1  UNL1        0.0744
     27 C         141.5864  142.6482  163.3261 C.ar    1  UNL1        0.0792
     28 N         142.1223  143.9695  163.7918 N.ar    1  UNL1       -0.3198
     29 C         143.5214  144.0659  164.3238 C.ar    1  UNL1        0.2577
     30 O         144.0573  145.3873  164.7895 O.2     1  UNL1       -0.2672
     31 C         144.3846  142.8411  164.3901 C.ar    1  UNL1        0.0646
     32 C         143.8488  141.5197  163.9243 C.ar    1  UNL1        0.0819
     33 H         141.5556  144.7734  163.7483 H       1  UNL1        0.1690
     34 C         144.7121  140.2948  163.9906 C.3     1  UNL1        0.4189
     35 F         145.5754  139.0700  164.0569 F       1  UNL1       -0.1659
     36 F         145.2019  140.5647  162.5988 F       1  UNL1       -0.1659
     37 F         144.2223  140.0250  165.3824 F       1  UNL1       -0.1659
@<TRIPOS>BOND
     1    12    13    1
     2    13    14   ar
     3    14    15    1
     4    14    16   ar
     5    16    17   ar
     6    17    18   ar
     7    18    11    1
     8    11     5    1
     9     5     6    1
    10     6     7    1
    11     7     8    1
    12     8     4    1
    13     4     1    1
    14     1     2    1
    15     1    21    1
    16    21    22    1
    17    22    23   am
    18    23    24    2
    19    23    26    1
    20    26    27   ar
    21    27    28   ar
    22    28    29   ar
    23    29    30    2
    24    29    31   ar
    25    31    32   ar
    26    32    34    1
    27    34    35    1
    28    34    36    1
    29    34    37    1
    30     8     9    1
    31     9    10    1
    32    18    19   ar
    33    19    20    1
    34    19    13   ar
    35    10     5    1
    36    32    26   ar
    37     2     3    1
    38    22    25    1
    39    28    33    1
@<TRIPOS>MOLECULE
*****
 37 39 0 0 0
SMALL
GASTEIGER

@<TRIPOS>ATOM
      1 C         138.4743  141.7918  158.5587 C.3     1  UNL1        0.1459
      2 O         138.4608  142.4994  157.2362 O.3     1  UNL1       -0.3813
      3 H         138.4318  143.4578  157.3826 H       1  UNL1        0.2105
      4 C         138.5182  140.2932  158.6071 C.3     1  UNL1        0.1034
      5 C         139.3367  138.1907  162.5006 C.3     1  UNL1        0.1687
      6 C         140.4435  138.3877  161.5075 C.3     1  UNL1        0.0609
      7 C         140.1706  139.0885  160.2096 C.3     1  UNL1        0.0759
      8 N         138.7910  139.5924  159.9049 N.3     1  UNL1       -0.2704
      9 C         137.6842  139.3954  160.8980 C.3     1  UNL1        0.0759
     10 C         137.9570  138.6945  162.1958 C.3     1  UNL1        0.0609
     11 O         139.6095  137.4898  163.7984 O.3     1  UNL1       -0.4782
     12 C         141.9994  140.4262  167.3574 C.3     1  UNL1        0.0329
     13 C         140.7676  139.7248  166.8666 C.ar    1  UNL1        0.0023
     14 C         139.4991  139.7903  167.6644 C.ar    1  UNL1        0.0547
     15 CL        139.4623  140.5571  168.9531 Cl      1  UNL1       -0.0825
     16 C         138.2674  139.0890  167.1735 C.ar    1  UNL1        0.0142
     17 C         138.3041  138.3222  165.8849 C.ar    1  UNL1        0.0386
     18 C         139.5727  138.2567  165.0871 C.ar    1  UNL1        0.1485
     19 C         140.8044  138.9580  165.5780 C.ar    1  UNL1        0.0884
     20 CL        142.0730  138.8925  164.7801 Cl      1  UNL1       -0.0794
     21 C         138.4439  142.5827  159.8329 C.3     1  UNL1        0.1204
     22 N         139.6604  142.6412  160.7086 N.am    1  UNL1       -0.2985
     23 C         139.7531  143.6704  161.7958 C.2     1  UNL1        0.2473
     24 O         138.6294  144.6411  162.0074 O.2     1  UNL1       -0.2701
     25 H         140.3979  142.0040  160.5697 H       1  UNL1        0.1498
     26 C         140.9696  143.7289  162.6714 C.ar    1  UNL1        0.0744
     27 C         142.1967  144.4533  162.2031 C.ar    1  UNL1        0.0792
     28 N         143.4132  144.5118  163.0788 N.ar    1  UNL1       -0.3198
     29 C         143.4025  143.8458  164.4227 C.ar    1  UNL1        0.2577
     30 O         144.6190  143.9043  165.2984 O.2     1  UNL1       -0.2672
     31 C         142.1754  143.1214  164.8911 C.ar    1  UNL1        0.0646
     32 C         140.9590  143.0629  164.0154 C.ar    1  UNL1        0.0819
     33 H         144.2185  144.9873  162.7714 H       1  UNL1        0.1690
     34 C         139.7318  142.3384  164.4838 C.3     1  UNL1        0.4189
     35 F         138.5047  141.6140  164.9522 F       1  UNL1       -0.1659
     36 F         140.0440  141.2063  163.5507 F       1  UNL1       -0.1659
     37 F         139.4197  143.4705  165.4170 F       1  UNL1       -0.1659
@<TRIPOS>BOND
     1    12    13    1
     2    13    14   ar
     3    14    15    1
     4    14    16   ar
     5    16    17   ar
     6    17    18   ar
     7    18    11    1
     8    11     5    1
     9     5     6    1
    10     6     7    1
    11     7     8    1
    12     8     4    1
    13     4     1    1
    14     1     2    1
    15     1    21    1
    16    21    22    1
    17    22    23   am
    18    23    24    2
    19    23    26    1
    20    26    27   ar
    21    27    28   ar
    22    28    29   ar
    23    29    30    2
    24    29    31   ar
    25    31    32   ar
    26    32    34    1
    27    34    35    1
    28    34    36    1
    29    34    37    1
    30     8     9    1
    31     9    10    1
    32    18    19   ar
    33    19    20    1
    34    19    13   ar
    35    10     5    1
    36    32    26   ar
    37     2     3    1
    38    22    25    1
    39    28    33    1
@<TRIPOS>MOLECULE
*****
 37 39 0 0 0
SMALL
GASTEIGER

@<TRIPOS>ATOM
      1 C         142.5821  141.9040  168.8799 C.3     1  UNL1        0.1459
      2 O         141.7936  142.8040  169.7845 O.3     1  UNL1       -0.3813
      3 H         142.0649  143.7242  169.6416 H       1  UNL1        0.2105
      4 C         142.3495  140.4224  168.9075 C.3     1  UNL1        0.1034
      5 C         141.4563  138.2134  165.0901 C.3     1  UNL1        0.1687
      6 C         140.4017  139.0704  165.7251 C.3     1  UNL1        0.0609
      7 C         140.6994  139.8068  166.9976 C.3     1  UNL1        0.0759
      8 N         142.0518  139.6861  167.6351 N.3     1  UNL1       -0.2704
      9 C         143.1065  138.8290  167.0002 C.3     1  UNL1        0.0759
     10 C         142.8088  138.0927  165.7277 C.3     1  UNL1        0.0609
     11 O         141.1586  137.4771  163.8177 O.3     1  UNL1       -0.4782
     12 C         140.6389  140.4478  159.5863 C.3     1  UNL1        0.0329
     13 C         140.0273  139.5933  160.6567 C.ar    1  UNL1        0.0023
     14 C         138.5443  139.3696  160.6819 C.ar    1  UNL1        0.0547
     15 CL        137.6728  140.0004  159.6365 Cl      1  UNL1       -0.0825
     16 C         137.9327  138.5151  161.7523 C.ar    1  UNL1        0.0142
     17 C         138.8042  137.8842  162.7975 C.ar    1  UNL1        0.0386
     18 C         140.2871  138.1079  162.7724 C.ar    1  UNL1        0.1485
     19 C         140.8987  138.9624  161.7020 C.ar    1  UNL1        0.0884
     20 CL        142.3818  139.1861  161.6769 Cl      1  UNL1       -0.0794
     21 C         143.6032  142.4856  167.9476 C.3     1  UNL1        0.1204
     22 N         143.3167  142.5664  166.4774 N.am    1  UNL1       -0.2985
     23 C         144.1798  143.4139  165.5905 C.2     1  UNL1        0.2473
     24 O         145.3295  144.1807  166.1737 O.2     1  UNL1       -0.2701
     25 H         142.5621  142.0631  166.0946 H       1  UNL1        0.1498
     26 C         143.8933  143.4946  164.1203 C.ar    1  UNL1        0.0744
     27 C         143.2214  144.7097  163.5528 C.ar    1  UNL1        0.0792
     28 N         142.9349  144.7904  162.0826 N.ar    1  UNL1       -0.3198
     29 C         143.3202  143.6560  161.1800 C.ar    1  UNL1        0.2577
     30 O         143.0336  143.7368  159.7098 O.2     1  UNL1       -0.2672
     31 C         143.9920  142.4410  161.7476 C.ar    1  UNL1        0.0646
     32 C         144.2786  142.3602  163.2177 C.ar    1  UNL1        0.0819
     33 H         142.4939  145.5879  161.7101 H       1  UNL1        0.1690
     34 C         144.9504  141.1451  163.7853 C.3     1  UNL1        0.4189
     35 F         145.6223  139.9300  164.3528 F       1  UNL1       -0.1659
     36 F         146.2916  141.7523  163.4977 F       1  UNL1       -0.1659
     37 F         143.6093  140.5379  164.0728 F       1  UNL1       -0.1659
@<TRIPOS>BOND
     1    12    13    1
     2    13    14   ar
     3    14    15    1
     4    14    16   ar
     5    16    17   ar
     6    17    18   ar
     7    18    11    1
     8    11     5    1
     9     5     6    1
    10     6     7    1
    11     7     8    1
    12     8     4    1
    13     4     1    1
    14     1     2    1
    15     1    21    1
    16    21    22    1
    17    22    23   am
    18    23    24    2
    19    23    26    1
    20    26    27   ar
    21    27    28   ar
    22    28    29   ar
    23    29    30    2
    24    29    31   ar
    25    31    32   ar
    26    32    34    1
    27    34    35    1
    28    34    36    1
    29    34    37    1
    30     8     9    1
    31     9    10    1
    32    18    19   ar
    33    19    20    1
    34    19    13   ar
    35    10     5    1
    36    32    26   ar
    37     2     3    1
    38    22    25    1
    39    28    33    1
@<TRIPOS>MOLECULE
*****
 37 39 0 0 0
SMALL
GASTEIGER

@<TRIPOS>ATOM
      1 C         143.9546  139.5673  160.6588 C.3     1  UNL1        0.1459
      2 O         143.8589  139.0170  159.2667 O.3     1  UNL1       -0.3813
      3 H         143.6394  139.7330  158.6503 H       1  UNL1        0.2105
      4 C         144.2849  138.6569  161.8042 C.3     1  UNL1        0.1034
      5 C         141.8994  138.8768  165.6135 C.3     1  UNL1        0.1687
      6 C         143.2666  139.4903  165.5483 C.3     1  UNL1        0.0609
      7 C         144.0618  139.4170  164.2785 C.3     1  UNL1        0.0759
      8 N         143.4897  138.7302  163.0739 N.3     1  UNL1       -0.2704
      9 C         142.1225  138.1167  163.1391 C.3     1  UNL1        0.0759
     10 C         141.3273  138.1899  164.4089 C.3     1  UNL1        0.0609
     11 O         141.1042  138.9501  166.8832 O.3     1  UNL1       -0.4782
     12 C         141.8253  141.8118  171.1600 C.3     1  UNL1        0.0329
     13 C         141.3318  141.6860  169.7491 C.ar    1  UNL1        0.0023
     14 C         140.7055  142.8652  169.0656 C.ar    1  UNL1        0.0547
     15 CL        140.5726  144.1703  169.7931 Cl      1  UNL1       -0.0825
     16 C         140.2121  142.7394  167.6547 C.ar    1  UNL1        0.0142
     17 C         140.3449  141.4344  166.9272 C.ar    1  UNL1        0.0386
     18 C         140.9713  140.2552  167.6107 C.ar    1  UNL1        0.1485
     19 C         141.4647  140.3810  169.0216 C.ar    1  UNL1        0.0884
     20 CL        142.0911  139.2017  169.7051 Cl      1  UNL1       -0.0794
     21 C         143.7199  141.0283  160.9055 C.3     1  UNL1        0.1204
     22 N         142.5555  141.4702  161.7414 N.am    1  UNL1       -0.2985
     23 C         142.0966  142.8974  161.6935 C.2     1  UNL1        0.2473
     24 O         142.8023  143.8828  160.8097 O.2     1  UNL1       -0.2701
     25 H         142.0923  140.8234  162.3214 H       1  UNL1        0.1498
     26 C         140.9322  143.3393  162.5294 C.ar    1  UNL1        0.0744
     27 C         139.5315  143.0522  162.0759 C.ar    1  UNL1        0.0792
     28 N         138.3671  143.4941  162.9118 N.ar    1  UNL1       -0.3198
     29 C         138.6032  144.2231  164.2012 C.ar    1  UNL1        0.2577
     30 O         137.4387  144.6650  165.0371 O.2     1  UNL1       -0.2672
     31 C         140.0039  144.5102  164.6547 C.ar    1  UNL1        0.0646
     32 C         141.1683  144.0683  163.8189 C.ar    1  UNL1        0.0819
     33 H         137.4478  143.3057  162.6140 H       1  UNL1        0.1690
     34 C         142.5690  144.3555  164.2725 C.3     1  UNL1        0.4189
     35 F         143.9696  144.6426  164.7260 F       1  UNL1       -0.1659
     36 F         142.6202  143.0225  164.9584 F       1  UNL1       -0.1659
     37 F         142.5179  145.6884  163.5865 F       1  UNL1       -0.1659
@<TRIPOS>BOND
     1    12    13    1
     2    13    14   ar
     3    14    15    1
     4    14    16   ar
     5    16    17   ar
     6    17    18   ar
     7    18    11    1
     8    11     5    1
     9     5     6    1
    10     6     7    1
    11     7     8    1
    12     8     4    1
    13     4     1    1
    14     1     2    1
    15     1    21    1
    16    21    22    1
    17    22    23   am
    18    23    24    2
    19    23    26    1
    20    26    27   ar
    21    27    28   ar
    22    28    29   ar
    23    29    30    2
    24    29    31   ar
    25    31    32   ar
    26    32    34    1
    27    34    35    1
    28    34    36    1
    29    34    37    1
    30     8     9    1
    31     9    10    1
    32    18    19   ar
    33    19    20    1
    34    19    13   ar
    35    10     5    1
    36    32    26   ar
    37     2     3    1
    38    22    25    1
    39    28    33    1
