@<TRIPOS>MOLECULE
*****
 41 46 0 0 0
SMALL
GASTEIGER

@<TRIPOS>ATOM
      1 C         141.4853  144.2382  161.5837 C.ar    1  UNL1        0.2219
      2 N         140.6144  145.4550  161.4789 N.ar    1  UNL1       -0.2096
      3 C         139.5033  145.6691  162.4635 C.ar    1  UNL1        0.1329
      4 C         139.2632  144.6666  163.5531 C.ar    1  UNL1        0.1768
      5 F         138.1521  144.8807  164.5378 F       1  UNL1       -0.2009
      6 C         140.1341  143.4498  163.6579 C.ar    1  UNL1        0.1132
      7 N         141.2452  143.2356  162.6732 N.ar    1  UNL1       -0.2112
      8 C         139.8940  142.4472  164.7475 C.ar    1  UNL1        0.0238
      9 C         139.1697  141.1691  164.4443 C.ar    1  UNL1        0.0329
     10 C         138.9295  140.1665  165.5338 C.ar    1  UNL1        0.1591
     11 F         138.2053  138.8884  165.2306 F       1  UNL1       -0.2025
     12 C         139.4136  140.4420  166.9265 C.ar    1  UNL1        0.1256
     13 N         139.3237  139.6478  168.1959 N.ar    1  UNL1       -0.2287
     14 C         139.9924  140.4351  169.2836 C.ar    1  UNL1        0.1207
     15 C         140.1332  140.0153  170.7167 C.3     1  UNL1        0.0718
     16 N         140.4956  141.7158  168.6865 N.ar    1  UNL1       -0.3167
     17 C         140.1379  141.7201  167.2297 C.ar    1  UNL1        0.0808
     18 C         140.3780  142.7227  166.1402 C.ar    1  UNL1        0.0205
     19 C         141.2279  142.8016  169.4178 C.3     1  UNL1        0.0867
     20 C         142.7093  142.6964  169.6286 C.3     1  UNL1        0.0245
     21 C         140.4790  143.9925  169.9382 C.3     1  UNL1        0.0245
     22 N         142.5964  144.0241  160.5989 N.pl3   1  UNL1       -0.2680
     23 H         143.2583  144.7356  160.4411 H       1  UNL1        0.1565
     24 N         141.7935  137.9663  157.4513 N.3     1  UNL1       -0.2698
     25 C         140.4771  138.3997  158.0251 C.3     1  UNL1        0.0786
     26 C         140.3744  139.6979  158.7694 C.3     1  UNL1        0.0629
     27 C         141.5881  140.5627  158.9399 C.ar    1  UNL1        0.0591
     28 N         141.4854  141.8610  159.6842 N.ar    1  UNL1       -0.2351
     29 C         142.6991  142.7259  159.8546 C.ar    1  UNL1        0.1339
     30 C         144.0155  142.2924  159.2807 C.ar    1  UNL1        0.0342
     31 C         144.1181  140.9942  158.5364 C.ar    1  UNL1        0.0011
     32 C         142.9045  140.1293  158.3660 C.ar    1  UNL1        0.0076
     33 C         143.0071  138.8311  157.6217 C.3     1  UNL1        0.1003
     34 N         142.1017  134.0715  155.2183 N.3     1  UNL1       -0.2726
     35 C         141.0536  135.0742  154.8361 C.3     1  UNL1        0.0735
     36 C         140.9509  136.3725  155.5804 C.3     1  UNL1        0.0333
     37 C         141.8962  136.6680  156.7069 C.3     1  UNL1        0.0606
     38 C         142.9442  135.6652  157.0892 C.3     1  UNL1        0.0333
     39 C         143.0470  134.3670  156.3449 C.3     1  UNL1        0.0735
     40 C         141.3145  131.6240  154.8444 C.3     1  UNL1        0.0188
     41 C         142.2044  132.7732  154.4740 C.3     1  UNL1        0.0721
@<TRIPOS>BOND
     1    40    41    1
     2    41    34    1
     3    34    35    1
     4    35    36    1
     5    36    37    1
     6    37    24    1
     7    24    25    1
     8    25    26    1
     9    26    27    1
    10    27    28   ar
    11    28    29   ar
    12    29    22    1
    13    22     1    1
    14     1     2   ar
    15     2     3   ar
    16     3     4   ar
    17     4     5    1
    18     4     6   ar
    19     6     8    1
    20     8     9   ar
    21     9    10   ar
    22    10    11    1
    23    10    12   ar
    24    12    13   ar
    25    13    14   ar
    26    14    15    1
    27    14    16   ar
    28    16    19    1
    29    19    20    1
    30    19    21    1
    31    16    17   ar
    32    17    18   ar
    33     6     7   ar
    34    29    30   ar
    35    30    31   ar
    36    31    32   ar
    37    32    33    1
    38    37    38    1
    39    38    39    1
    40    39    34    1
    41    33    24    1
    42    32    27   ar
    43     7     1   ar
    44    18     8   ar
    45    17    12   ar
    46    22    23    1
@<TRIPOS>MOLECULE
*****
 41 46 0 0 0
SMALL
GASTEIGER

@<TRIPOS>ATOM
      1 C         139.1893  143.5642  161.7476 C.ar    1  UNL1        0.2219
      2 N         138.4451  144.7037  162.3782 N.ar    1  UNL1       -0.2096
      3 C         138.4914  144.8986  163.8647 C.ar    1  UNL1        0.1329
      4 C         139.2820  143.9540  164.7206 C.ar    1  UNL1        0.1768
      5 F         139.3283  144.1489  166.2073 F       1  UNL1       -0.2009
      6 C         140.0262  142.8145  164.0900 C.ar    1  UNL1        0.1132
      7 N         139.9799  142.6196  162.6035 N.ar    1  UNL1       -0.2112
      8 C         140.8169  141.8699  164.9461 C.ar    1  UNL1        0.0238
      9 C         141.9437  141.0805  164.3485 C.ar    1  UNL1        0.0329
     10 C         142.7343  140.1360  165.2044 C.ar    1  UNL1        0.1591
     11 F         143.8611  139.3466  164.6068 F       1  UNL1       -0.2025
     12 C         142.3981  139.9808  166.6579 C.ar    1  UNL1        0.1256
     13 N         142.9958  139.1330  167.7414 N.ar    1  UNL1       -0.2287
     14 C         142.2384  139.3984  169.0087 C.ar    1  UNL1        0.1207
     15 C         142.5008  138.7634  170.3421 C.3     1  UNL1        0.0718
     16 N         141.1726  140.4102  168.7084 N.ar    1  UNL1       -0.3167
     17 C         141.2713  140.7702  167.2555 C.ar    1  UNL1        0.0808
     18 C         140.4807  141.7147  166.3996 C.ar    1  UNL1        0.0205
     19 C         140.1820  140.9647  169.6888 C.3     1  UNL1        0.0867
     20 C         140.4934  142.2271  170.4368 C.3     1  UNL1        0.0245
     21 C         138.8801  140.2569  169.9214 C.3     1  UNL1        0.0245
     22 N         139.1430  143.3694  160.2610 N.pl3   1  UNL1       -0.2680
     23 H         138.9053  144.1224  159.6730 H       1  UNL1        0.1565
     24 N         141.6964  137.7898  157.1628 N.3     1  UNL1       -0.2698
     25 C         142.6708  138.9210  157.0181 C.3     1  UNL1        0.0786
     26 C         142.3550  140.2631  157.6088 C.3     1  UNL1        0.0629
     27 C         141.0648  140.4741  158.3442 C.ar    1  UNL1        0.0591
     28 N         140.7490  141.8163  158.9349 N.ar    1  UNL1       -0.2351
     29 C         139.4588  142.0272  159.6703 C.ar    1  UNL1        0.1339
     30 C         138.4843  140.8960  159.8149 C.ar    1  UNL1        0.0342
     31 C         138.8001  139.5539  159.2242 C.ar    1  UNL1        0.0011
     32 C         140.0903  139.3429  158.4888 C.ar    1  UNL1        0.0076
     33 C         140.4061  138.0008  157.8982 C.3     1  UNL1        0.1003
     34 N         142.6436  133.7633  155.3906 N.3     1  UNL1       -0.2726
     35 C         143.4829  134.3069  156.5087 C.3     1  UNL1        0.0735
     36 C         143.1671  135.6491  157.0994 C.3     1  UNL1        0.0333
     37 C         142.0121  136.4476  156.5720 C.3     1  UNL1        0.0606
     38 C         141.1728  135.9041  155.4539 C.3     1  UNL1        0.0333
     39 C         141.4885  134.5620  154.8632 C.3     1  UNL1        0.0735
     40 C         144.1035  131.6149  155.3390 C.3     1  UNL1        0.0188
     41 C         142.9593  132.4212  154.7999 C.3     1  UNL1        0.0721
@<TRIPOS>BOND
     1    40    41    1
     2    41    34    1
     3    34    35    1
     4    35    36    1
     5    36    37    1
     6    37    24    1
     7    24    25    1
     8    25    26    1
     9    26    27    1
    10    27    28   ar
    11    28    29   ar
    12    29    22    1
    13    22     1    1
    14     1     2   ar
    15     2     3   ar
    16     3     4   ar
    17     4     5    1
    18     4     6   ar
    19     6     8    1
    20     8     9   ar
    21     9    10   ar
    22    10    11    1
    23    10    12   ar
    24    12    13   ar
    25    13    14   ar
    26    14    15    1
    27    14    16   ar
    28    16    19    1
    29    19    20    1
    30    19    21    1
    31    16    17   ar
    32    17    18   ar
    33     6     7   ar
    34    29    30   ar
    35    30    31   ar
    36    31    32   ar
    37    32    33    1
    38    37    38    1
    39    38    39    1
    40    39    34    1
    41    33    24    1
    42    32    27   ar
    43     7     1   ar
    44    18     8   ar
    45    17    12   ar
    46    22    23    1
@<TRIPOS>MOLECULE
*****
 41 46 0 0 0
SMALL
GASTEIGER

@<TRIPOS>ATOM
      1 C         138.8310  139.7041  158.1816 C.ar    1  UNL1        0.2219
      2 N         140.0208  139.0549  157.5390 N.ar    1  UNL1       -0.2096
      3 C         141.1296  138.5113  158.3905 C.ar    1  UNL1        0.1329
      4 C         141.0487  138.6171  159.8845 C.ar    1  UNL1        0.1768
      5 F         142.1576  138.0735  160.7360 F       1  UNL1       -0.2009
      6 C         139.8589  139.2663  160.5271 C.ar    1  UNL1        0.1132
      7 N         138.7501  139.8099  159.6757 N.ar    1  UNL1       -0.2112
      8 C         139.7780  139.3720  162.0212 C.ar    1  UNL1        0.0238
      9 C         139.2889  138.2073  162.8301 C.ar    1  UNL1        0.0329
     10 C         139.2080  138.3130  164.3242 C.ar    1  UNL1        0.1591
     11 F         138.7189  137.1483  165.1330 F       1  UNL1       -0.2025
     12 C         139.6162  139.5833  165.0093 C.ar    1  UNL1        0.1256
     13 N         139.6448  139.9790  166.4559 N.ar    1  UNL1       -0.2287
     14 C         140.1516  141.3882  166.5412 C.ar    1  UNL1        0.1207
     15 C         140.3405  142.1827  167.7994 C.3     1  UNL1        0.0718
     16 N         140.4362  141.8635  165.1472 N.ar    1  UNL1       -0.3167
     17 C         140.1053  140.7480  164.2005 C.ar    1  UNL1        0.0808
     18 C         140.1862  140.6424  162.7064 C.ar    1  UNL1        0.0205
     19 C         140.9597  143.2167  164.7668 C.3     1  UNL1        0.0867
     20 C         142.4265  143.4113  164.5206 C.3     1  UNL1        0.0245
     21 C         140.0166  144.3754  164.6326 C.3     1  UNL1        0.0245
     22 N         137.7221  140.2477  157.3301 N.pl3   1  UNL1       -0.2680
     23 H         136.9375  139.6885  157.1277 H       1  UNL1        0.1565
     24 N         139.1381  146.7602  155.6472 N.3     1  UNL1       -0.2698
     25 C         140.1211  146.2952  156.6804 C.3     1  UNL1        0.0786
     26 C         140.0345  144.8998  157.2236 C.3     1  UNL1        0.0629
     27 C         138.9649  143.9692  156.7336 C.ar    1  UNL1        0.0591
     28 N         138.8783  142.5737  157.2769 N.ar    1  UNL1       -0.2351
     29 C         137.8087  141.6432  156.7869 C.ar    1  UNL1        0.1339
     30 C         136.8257  142.1082  155.7536 C.ar    1  UNL1        0.0342
     31 C         136.9123  143.5036  155.2105 C.ar    1  UNL1        0.0011
     32 C         137.9819  144.4342  155.7004 C.ar    1  UNL1        0.0076
     33 C         138.0685  145.8296  155.1572 C.3     1  UNL1        0.1003
     34 N         139.3978  150.9467  154.0175 N.3     1  UNL1       -0.2726
     35 C         139.9841  149.8031  153.2440 C.3     1  UNL1        0.0735
     36 C         139.8976  148.4076  153.7873 C.3     1  UNL1        0.0333
     37 C         139.2247  148.1557  155.1040 C.3     1  UNL1        0.0606
     38 C         138.6383  149.2993  155.8775 C.3     1  UNL1        0.0333
     39 C         138.7248  150.6948  155.3343 C.3     1  UNL1        0.0735
     40 C         138.2704  152.9919  152.8790 C.3     1  UNL1        0.0188
     41 C         139.4843  152.3422  153.4743 C.3     1  UNL1        0.0721
@<TRIPOS>BOND
     1    40    41    1
     2    41    34    1
     3    34    35    1
     4    35    36    1
     5    36    37    1
     6    37    24    1
     7    24    25    1
     8    25    26    1
     9    26    27    1
    10    27    28   ar
    11    28    29   ar
    12    29    22    1
    13    22     1    1
    14     1     2   ar
    15     2     3   ar
    16     3     4   ar
    17     4     5    1
    18     4     6   ar
    19     6     8    1
    20     8     9   ar
    21     9    10   ar
    22    10    11    1
    23    10    12   ar
    24    12    13   ar
    25    13    14   ar
    26    14    15    1
    27    14    16   ar
    28    16    19    1
    29    19    20    1
    30    19    21    1
    31    16    17   ar
    32    17    18   ar
    33     6     7   ar
    34    29    30   ar
    35    30    31   ar
    36    31    32   ar
    37    32    33    1
    38    37    38    1
    39    38    39    1
    40    39    34    1
    41    33    24    1
    42    32    27   ar
    43     7     1   ar
    44    18     8   ar
    45    17    12   ar
    46    22    23    1
@<TRIPOS>MOLECULE
*****
 41 46 0 0 0
SMALL
GASTEIGER

@<TRIPOS>ATOM
      1 C         137.3582  140.5488  155.7123 C.ar    1  UNL1        0.2219
      2 N         137.5018  141.2698  154.4048 N.ar    1  UNL1       -0.2096
      3 C         136.2806  141.6943  153.6444 C.ar    1  UNL1        0.1329
      4 C         134.9158  141.3979  154.1915 C.ar    1  UNL1        0.1768
      5 F         133.6945  141.8224  153.4310 F       1  UNL1       -0.2009
      6 C         134.7722  140.6769  155.4990 C.ar    1  UNL1        0.1132
      7 N         135.9934  140.2523  156.2594 N.ar    1  UNL1       -0.2112
      8 C         133.4073  140.3804  156.0460 C.ar    1  UNL1        0.0238
      9 C         133.2377  139.3458  157.1187 C.ar    1  UNL1        0.0329
     10 C         131.8729  139.0493  157.6658 C.ar    1  UNL1        0.1591
     11 F         131.7033  138.0146  158.7385 F       1  UNL1       -0.2025
     12 C         130.6776  139.7875  157.1401 C.ar    1  UNL1        0.1256
     13 N         129.2194  139.7103  157.4833 N.ar    1  UNL1       -0.2287
     14 C         128.4878  140.6972  156.6227 C.ar    1  UNL1        0.1207
     15 C         127.0097  140.9522  156.6350 C.3     1  UNL1        0.0718
     16 N         129.4938  141.3844  155.7476 N.ar    1  UNL1       -0.3167
     17 C         130.8472  140.8221  156.0674 C.ar    1  UNL1        0.0808
     18 C         132.2120  141.1186  155.5203 C.ar    1  UNL1        0.0205
     19 C         129.1982  142.4472  154.7312 C.3     1  UNL1        0.0867
     20 C         129.4563  143.8885  155.0566 C.3     1  UNL1        0.0245
     21 C         128.6446  142.0687  153.3895 C.3     1  UNL1        0.0245
     22 N         138.5796  140.1242  156.4728 N.pl3   1  UNL1       -0.2680
     23 H         139.3491  139.7404  155.9935 H       1  UNL1        0.1565
     24 N         139.0732  139.5821  163.3074 N.3     1  UNL1       -0.2698
     25 C         139.3229  138.2385  162.6890 C.3     1  UNL1        0.0786
     26 C         139.2742  138.0783  161.1984 C.3     1  UNL1        0.0629
     27 C         138.9756  139.2615  160.3262 C.ar    1  UNL1        0.0591
     28 N         138.9269  139.1012  158.8355 N.ar    1  UNL1       -0.2351
     29 C         138.6284  140.2845  157.9633 C.ar    1  UNL1        0.1339
     30 C         138.3786  141.6281  158.5818 C.ar    1  UNL1        0.0342
     31 C         138.4274  141.7884  160.0724 C.ar    1  UNL1        0.0011
     32 C         138.7259  140.6051  160.9446 C.ar    1  UNL1        0.0076
     33 C         138.7747  140.7654  162.4352 C.3     1  UNL1        0.1003
     34 N         139.2195  140.0630  167.7793 N.3     1  UNL1       -0.2726
     35 C         140.1024  140.9036  166.9053 C.3     1  UNL1        0.0735
     36 C         140.0537  140.7432  165.4146 C.3     1  UNL1        0.0333
     37 C         139.1220  139.7424  164.7980 C.3     1  UNL1        0.0606
     38 C         138.2390  138.9018  165.6720 C.3     1  UNL1        0.0333
     39 C         138.2878  139.0621  167.1626 C.3     1  UNL1        0.0735
     40 C         140.4674  140.8491  169.9180 C.3     1  UNL1        0.0188
     41 C         139.2682  140.2233  169.2699 C.3     1  UNL1        0.0721
@<TRIPOS>BOND
     1    40    41    1
     2    41    34    1
     3    34    35    1
     4    35    36    1
     5    36    37    1
     6    37    24    1
     7    24    25    1
     8    25    26    1
     9    26    27    1
    10    27    28   ar
    11    28    29   ar
    12    29    22    1
    13    22     1    1
    14     1     2   ar
    15     2     3   ar
    16     3     4   ar
    17     4     5    1
    18     4     6   ar
    19     6     8    1
    20     8     9   ar
    21     9    10   ar
    22    10    11    1
    23    10    12   ar
    24    12    13   ar
    25    13    14   ar
    26    14    15    1
    27    14    16   ar
    28    16    19    1
    29    19    20    1
    30    19    21    1
    31    16    17   ar
    32    17    18   ar
    33     6     7   ar
    34    29    30   ar
    35    30    31   ar
    36    31    32   ar
    37    32    33    1
    38    37    38    1
    39    38    39    1
    40    39    34    1
    41    33    24    1
    42    32    27   ar
    43     7     1   ar
    44    18     8   ar
    45    17    12   ar
    46    22    23    1
@<TRIPOS>MOLECULE
*****
 41 46 0 0 0
SMALL
GASTEIGER

@<TRIPOS>ATOM
      1 C         142.9073  137.6906  156.8179 C.ar    1  UNL1        0.2219
      2 N         141.9725  138.0251  155.6935 N.ar    1  UNL1       -0.2096
      3 C         141.4171  136.9321  154.8295 C.ar    1  UNL1        0.1329
      4 C         141.7966  135.5044  155.0897 C.ar    1  UNL1        0.1768
      5 F         141.2412  134.4112  154.2256 F       1  UNL1       -0.2009
      6 C         142.7314  135.1698  156.2141 C.ar    1  UNL1        0.1132
      7 N         143.2868  136.2629  157.0782 N.ar    1  UNL1       -0.2112
      8 C         143.1109  133.7421  156.4743 C.ar    1  UNL1        0.0238
      9 C         144.2712  133.4259  157.3708 C.ar    1  UNL1        0.0329
     10 C         144.6506  131.9983  157.6311 C.ar    1  UNL1        0.1591
     11 F         145.8109  131.6821  158.5276 F       1  UNL1       -0.2025
     12 C         143.8698  130.8868  156.9948 C.ar    1  UNL1        0.1256
     13 N         144.0080  129.3948  157.0654 N.ar    1  UNL1       -0.2287
     14 C         142.9331  128.7889  156.2125 C.ar    1  UNL1        0.1207
     15 C         142.7013  127.3229  155.9954 C.3     1  UNL1        0.0718
     16 N         142.1306  129.9064  155.6148 N.ar    1  UNL1       -0.3167
     17 C         142.7095  131.2030  156.0983 C.ar    1  UNL1        0.0808
     18 C         142.3300  132.6306  155.8380 C.ar    1  UNL1        0.0205
     19 C         140.9555  129.7540  154.6950 C.3     1  UNL1        0.0867
     20 C         139.6553  129.2224  155.2212 C.3     1  UNL1        0.0245
     21 C         141.0805  130.1332  153.2492 C.3     1  UNL1        0.0245
     22 N         143.4627  138.7837  157.6820 N.pl3   1  UNL1       -0.2680
     23 H         144.1687  139.3754  157.3344 H       1  UNL1        0.1565
     24 N         142.3080  139.4135  164.4288 N.3     1  UNL1       -0.2698
     25 C         143.7545  139.0845  164.2069 C.3     1  UNL1        0.0786
     26 C         144.2747  138.8928  162.8132 C.3     1  UNL1        0.0629
     27 C         143.3484  139.0300  161.6414 C.ar    1  UNL1        0.0591
     28 N         143.8688  138.8383  160.2476 N.ar    1  UNL1       -0.2351
     29 C         142.9425  138.9755  159.0757 C.ar    1  UNL1        0.1339
     30 C         141.4959  139.3045  159.2977 C.ar    1  UNL1        0.0342
     31 C         140.9756  139.4963  160.6914 C.ar    1  UNL1        0.0011
     32 C         141.9019  139.3590  161.8633 C.ar    1  UNL1        0.0076
     33 C         141.3817  139.5508  163.2570 C.3     1  UNL1        0.1003
     34 N         140.7470  139.9888  168.6101 N.3     1  UNL1       -0.2726
     35 C         142.1899  139.6434  168.3891 C.3     1  UNL1        0.0735
     36 C         142.7102  139.4517  166.9953 C.3     1  UNL1        0.0333
     37 C         141.7877  139.6053  165.8226 C.3     1  UNL1        0.0606
     38 C         140.3448  139.9507  166.0436 C.3     1  UNL1        0.0333
     39 C         139.8245  140.1425  167.4373 C.3     1  UNL1        0.0735
     40 C         138.7663  140.4368  170.2304 C.3     1  UNL1        0.0188
     41 C         140.2267  140.1806  170.0038 C.3     1  UNL1        0.0721
@<TRIPOS>BOND
     1    40    41    1
     2    41    34    1
     3    34    35    1
     4    35    36    1
     5    36    37    1
     6    37    24    1
     7    24    25    1
     8    25    26    1
     9    26    27    1
    10    27    28   ar
    11    28    29   ar
    12    29    22    1
    13    22     1    1
    14     1     2   ar
    15     2     3   ar
    16     3     4   ar
    17     4     5    1
    18     4     6   ar
    19     6     8    1
    20     8     9   ar
    21     9    10   ar
    22    10    11    1
    23    10    12   ar
    24    12    13   ar
    25    13    14   ar
    26    14    15    1
    27    14    16   ar
    28    16    19    1
    29    19    20    1
    30    19    21    1
    31    16    17   ar
    32    17    18   ar
    33     6     7   ar
    34    29    30   ar
    35    30    31   ar
    36    31    32   ar
    37    32    33    1
    38    37    38    1
    39    38    39    1
    40    39    34    1
    41    33    24    1
    42    32    27   ar
    43     7     1   ar
    44    18     8   ar
    45    17    12   ar
    46    22    23    1
@<TRIPOS>MOLECULE
*****
 41 46 0 0 0
SMALL
GASTEIGER

@<TRIPOS>ATOM
      1 C         142.6158  144.0547  158.6163 C.ar    1  UNL1        0.2219
      2 N         141.3820  144.8749  158.3815 N.ar    1  UNL1       -0.2096
      3 C         140.5113  145.2677  159.5380 C.ar    1  UNL1        0.1329
      4 C         140.8743  144.8404  160.9292 C.ar    1  UNL1        0.1768
      5 F         140.0035  145.2332  162.0857 F       1  UNL1       -0.2009
      6 C         142.1080  144.0202  161.1640 C.ar    1  UNL1        0.1132
      7 N         142.9788  143.6273  160.0075 N.ar    1  UNL1       -0.2112
      8 C         142.4710  143.5928  162.5553 C.ar    1  UNL1        0.0238
      9 C         143.4709  144.3835  163.3459 C.ar    1  UNL1        0.0329
     10 C         143.8339  143.9562  164.7371 C.ar    1  UNL1        0.1591
     11 F         144.8338  144.7468  165.5277 F       1  UNL1       -0.2025
     12 C         143.1970  142.7383  165.3378 C.ar    1  UNL1        0.1256
     13 N         143.3555  142.0792  166.6759 N.ar    1  UNL1       -0.2287
     14 C         142.4536  140.8812  166.7123 C.ar    1  UNL1        0.1207
     15 C         142.2954  139.9313  167.8624 C.3     1  UNL1        0.0718
     16 N         141.7376  140.7999  165.3967 N.ar    1  UNL1       -0.3167
     17 C         142.1970  141.9476  164.5472 C.ar    1  UNL1        0.0808
     18 C         141.8340  142.3749  163.1560 C.ar    1  UNL1        0.0205
     19 C         140.7377  139.7543  165.0003 C.3     1  UNL1        0.0867
     20 C         139.2981  139.9062  165.3933 C.3     1  UNL1        0.0245
     21 C         141.1774  138.5570  164.2110 C.3     1  UNL1        0.0245
     22 N         143.4866  143.6618  157.4598 N.pl3   1  UNL1       -0.2680
     23 H         144.0270  144.3423  156.9971 H       1  UNL1        0.1565
     24 N         143.1806  136.8542  156.5583 N.3     1  UNL1       -0.2698
     25 C         142.6383  137.1947  157.9147 C.3     1  UNL1        0.0786
     26 C         142.5910  138.6243  158.3663 C.3     1  UNL1        0.0629
     27 C         143.0861  139.7134  157.4614 C.ar    1  UNL1        0.0591
     28 N         143.0388  141.1431  157.9131 N.ar    1  UNL1       -0.2351
     29 C         143.5338  142.2322  157.0082 C.ar    1  UNL1        0.1339
     30 C         144.0762  141.8917  155.6517 C.ar    1  UNL1        0.0342
     31 C         144.1235  140.4621  155.2002 C.ar    1  UNL1        0.0011
     32 C         143.6284  139.3730  156.1050 C.ar    1  UNL1        0.0076
     33 C         143.6757  137.9434  155.6534 C.3     1  UNL1        0.1003
     34 N         143.3225  132.5653  155.2033 N.3     1  UNL1       -0.2726
     35 C         143.8294  132.9389  156.5648 C.3     1  UNL1        0.0735
     36 C         143.7821  134.3686  157.0164 C.3     1  UNL1        0.0333
     37 C         143.2279  135.4246  156.1066 C.3     1  UNL1        0.0606
     38 C         142.7210  135.0510  154.7452 C.3     1  UNL1        0.0333
     39 C         142.7682  133.6214  154.2936 C.3     1  UNL1        0.0735
     40 C         144.5994  130.3124  154.9960 C.3     1  UNL1        0.0188
     41 C         143.3697  131.1358  154.7517 C.3     1  UNL1        0.0721
@<TRIPOS>BOND
     1    40    41    1
     2    41    34    1
     3    34    35    1
     4    35    36    1
     5    36    37    1
     6    37    24    1
     7    24    25    1
     8    25    26    1
     9    26    27    1
    10    27    28   ar
    11    28    29   ar
    12    29    22    1
    13    22     1    1
    14     1     2   ar
    15     2     3   ar
    16     3     4   ar
    17     4     5    1
    18     4     6   ar
    19     6     8    1
    20     8     9   ar
    21     9    10   ar
    22    10    11    1
    23    10    12   ar
    24    12    13   ar
    25    13    14   ar
    26    14    15    1
    27    14    16   ar
    28    16    19    1
    29    19    20    1
    30    19    21    1
    31    16    17   ar
    32    17    18   ar
    33     6     7   ar
    34    29    30   ar
    35    30    31   ar
    36    31    32   ar
    37    32    33    1
    38    37    38    1
    39    38    39    1
    40    39    34    1
    41    33    24    1
    42    32    27   ar
    43     7     1   ar
    44    18     8   ar
    45    17    12   ar
    46    22    23    1
@<TRIPOS>MOLECULE
*****
 41 46 0 0 0
SMALL
GASTEIGER

@<TRIPOS>ATOM
      1 C         140.0178  138.5598  158.5102 C.ar    1  UNL1        0.2219
      2 N         138.9866  139.4387  157.8665 N.ar    1  UNL1       -0.2096
      3 C         138.0927  140.2923  158.7163 C.ar    1  UNL1        0.1329
      4 C         138.2300  140.2671  160.2098 C.ar    1  UNL1        0.1768
      5 F         137.3360  141.1208  161.0597 F       1  UNL1       -0.2009
      6 C         139.2611  139.3882  160.8534 C.ar    1  UNL1        0.1132
      7 N         140.1550  138.5346  160.0036 N.ar    1  UNL1       -0.2112
      8 C         139.3983  139.3630  162.3470 C.ar    1  UNL1        0.0238
      9 C         138.9474  138.1601  163.1213 C.ar    1  UNL1        0.0329
     10 C         139.0846  138.1348  164.6148 C.ar    1  UNL1        0.1591
     11 F         138.6337  136.9319  165.3892 F       1  UNL1       -0.2025
     12 C         139.6727  139.3125  165.3339 C.ar    1  UNL1        0.1256
     13 N         139.9317  139.5736  166.7881 N.ar    1  UNL1       -0.2287
     14 C         140.5426  140.9379  166.9126 C.ar    1  UNL1        0.1207
     15 C         140.9614  141.6032  168.1900 C.3     1  UNL1        0.0718
     16 N         140.6613  141.5199  165.5352 N.ar    1  UNL1       -0.3167
     17 C         140.1237  140.5154  164.5596 C.ar    1  UNL1        0.0808
     18 C         139.9865  140.5407  163.0661 C.ar    1  UNL1        0.0205
     19 C         141.2196  142.8696  165.1936 C.3     1  UNL1        0.0867
     20 C         142.7040  143.0672  165.1073 C.3     1  UNL1        0.0245
     21 C         140.2935  144.0217  164.9382 C.3     1  UNL1        0.0245
     22 N         140.9117  137.7062  157.6603 N.pl3   1  UNL1       -0.2680
     23 H         140.7183  136.7470  157.5515 H       1  UNL1        0.1565
     24 N         146.3731  141.3048  155.5453 N.3     1  UNL1       -0.2698
     25 C         145.8919  141.8646  156.8511 C.3     1  UNL1        0.0786
     26 C         144.7034  141.2568  157.5352 C.3     1  UNL1        0.0629
     27 C         143.9961  140.0893  156.9136 C.ar    1  UNL1        0.0591
     28 N         142.8075  139.4815  157.5978 N.ar    1  UNL1       -0.2351
     29 C         142.1002  138.3139  156.9762 C.ar    1  UNL1        0.1339
     30 C         142.5814  137.7541  155.6703 C.ar    1  UNL1        0.0342
     31 C         143.7699  138.3619  154.9862 C.ar    1  UNL1        0.0011
     32 C         144.4772  139.5294  155.6078 C.ar    1  UNL1        0.0076
     33 C         145.6657  140.1372  154.9237 C.3     1  UNL1        0.1003
     34 N         149.9386  143.1280  153.4927 N.3     1  UNL1       -0.2726
     35 C         150.1368  142.1596  154.6209 C.3     1  UNL1        0.0735
     36 C         148.9482  141.5518  155.3051 C.3     1  UNL1        0.0333
     37 C         147.5616  141.9125  154.8611 C.3     1  UNL1        0.0606
     38 C         147.3635  142.8810  153.7329 C.3     1  UNL1        0.0333
     39 C         148.5519  143.4887  153.0488 C.3     1  UNL1        0.0735
     40 C         152.3241  144.1503  153.6118 C.3     1  UNL1        0.0188
     41 C         151.1271  143.7358  152.8086 C.3     1  UNL1        0.0721
@<TRIPOS>BOND
     1    40    41    1
     2    41    34    1
     3    34    35    1
     4    35    36    1
     5    36    37    1
     6    37    24    1
     7    24    25    1
     8    25    26    1
     9    26    27    1
    10    27    28   ar
    11    28    29   ar
    12    29    22    1
    13    22     1    1
    14     1     2   ar
    15     2     3   ar
    16     3     4   ar
    17     4     5    1
    18     4     6   ar
    19     6     8    1
    20     8     9   ar
    21     9    10   ar
    22    10    11    1
    23    10    12   ar
    24    12    13   ar
    25    13    14   ar
    26    14    15    1
    27    14    16   ar
    28    16    19    1
    29    19    20    1
    30    19    21    1
    31    16    17   ar
    32    17    18   ar
    33     6     7   ar
    34    29    30   ar
    35    30    31   ar
    36    31    32   ar
    37    32    33    1
    38    37    38    1
    39    38    39    1
    40    39    34    1
    41    33    24    1
    42    32    27   ar
    43     7     1   ar
    44    18     8   ar
    45    17    12   ar
    46    22    23    1
@<TRIPOS>MOLECULE
*****
 41 46 0 0 0
SMALL
GASTEIGER

@<TRIPOS>ATOM
      1 C         139.7159  143.3935  157.1753 C.ar    1  UNL1        0.2219
      2 N         140.4305  144.6972  156.9762 N.ar    1  UNL1       -0.2096
      3 C         140.8035  145.5367  158.1619 C.ar    1  UNL1        0.1329
      4 C         140.4618  145.0726  159.5468 C.ar    1  UNL1        0.1768
      5 F         140.8348  145.9122  160.7326 F       1  UNL1       -0.2009
      6 C         139.7472  143.7689  159.7459 C.ar    1  UNL1        0.1132
      7 N         139.3742  142.9293  158.5601 N.ar    1  UNL1       -0.2112
      8 C         139.4055  143.3048  161.1308 C.ar    1  UNL1        0.0238
      9 C         139.1524  144.3080  162.2169 C.ar    1  UNL1        0.0329
     10 C         138.8108  143.8439  163.6017 C.ar    1  UNL1        0.1591
     11 F         138.5577  144.8471  164.6878 F       1  UNL1       -0.2025
     12 C         138.7222  142.3767  163.9005 C.ar    1  UNL1        0.1256
     13 N         138.4077  141.6262  165.1606 N.ar    1  UNL1       -0.2287
     14 C         138.4664  140.1592  164.8533 C.ar    1  UNL1        0.1207
     15 C         138.2180  139.0441  165.8254 C.3     1  UNL1        0.0718
     16 N         138.8172  140.0030  163.4033 N.ar    1  UNL1       -0.3167
     17 C         138.9752  141.3735  162.8144 C.ar    1  UNL1        0.0808
     18 C         139.3169  141.8375  161.4295 C.ar    1  UNL1        0.0205
     19 C         138.9811  138.7043  162.6708 C.3     1  UNL1        0.0867
     20 C         137.8873  138.2063  161.7733 C.3     1  UNL1        0.0245
     21 C         140.2387  137.9036  162.8358 C.3     1  UNL1        0.0245
     22 N         139.3429  142.5539  155.9895 N.pl3   1  UNL1       -0.2680
     23 H         138.8810  142.9631  155.2224 H       1  UNL1        0.1565
     24 N         142.0262  136.2357  156.3487 N.3     1  UNL1       -0.2698
     25 C         143.0555  137.2322  156.7929 C.3     1  UNL1        0.0786
     26 C         142.7247  138.6951  156.8100 C.3     1  UNL1        0.0629
     27 C         141.3646  139.1615  156.3827 C.ar    1  UNL1        0.0591
     28 N         141.0338  140.6246  156.3997 N.ar    1  UNL1       -0.2351
     29 C         139.6737  141.0910  155.9725 C.ar    1  UNL1        0.1339
     30 C         138.6444  140.0944  155.5282 C.ar    1  UNL1        0.0342
     31 C         138.9752  138.6314  155.5112 C.ar    1  UNL1        0.0011
     32 C         140.3353  138.1650  155.9384 C.ar    1  UNL1        0.0076
     33 C         140.6661  136.7021  155.9214 C.3     1  UNL1        0.1003
     34 N         143.0185  131.8467  156.2975 N.3     1  UNL1       -0.2726
     35 C         143.7966  132.7813  157.1756 C.3     1  UNL1        0.0735
     36 C         143.4658  134.2443  157.1926 C.3     1  UNL1        0.0333
     37 C         142.3570  134.7726  156.3316 C.3     1  UNL1        0.0606
     38 C         141.5789  133.8380  155.4536 C.3     1  UNL1        0.0333
     39 C         141.9097  132.3750  155.4365 C.3     1  UNL1        0.0735
     40 C         144.6990  129.9254  155.8137 C.3     1  UNL1        0.0188
     41 C         143.3493  130.3837  156.2805 C.3     1  UNL1        0.0721
@<TRIPOS>BOND
     1    40    41    1
     2    41    34    1
     3    34    35    1
     4    35    36    1
     5    36    37    1
     6    37    24    1
     7    24    25    1
     8    25    26    1
     9    26    27    1
    10    27    28   ar
    11    28    29   ar
    12    29    22    1
    13    22     1    1
    14     1     2   ar
    15     2     3   ar
    16     3     4   ar
    17     4     5    1
    18     4     6   ar
    19     6     8    1
    20     8     9   ar
    21     9    10   ar
    22    10    11    1
    23    10    12   ar
    24    12    13   ar
    25    13    14   ar
    26    14    15    1
    27    14    16   ar
    28    16    19    1
    29    19    20    1
    30    19    21    1
    31    16    17   ar
    32    17    18   ar
    33     6     7   ar
    34    29    30   ar
    35    30    31   ar
    36    31    32   ar
    37    32    33    1
    38    37    38    1
    39    38    39    1
    40    39    34    1
    41    33    24    1
    42    32    27   ar
    43     7     1   ar
    44    18     8   ar
    45    17    12   ar
    46    22    23    1
@<TRIPOS>MOLECULE
*****
 41 46 0 0 0
SMALL
GASTEIGER

@<TRIPOS>ATOM
      1 C         138.8222  142.5906  158.8816 C.ar    1  UNL1        0.2219
      2 N         139.4148  143.7541  158.1434 N.ar    1  UNL1       -0.2096
      3 C         140.1259  144.8378  158.8983 C.ar    1  UNL1        0.1329
      4 C         140.2445  144.7579  160.3914 C.ar    1  UNL1        0.1768
      5 F         140.9557  145.8416  161.1464 F       1  UNL1       -0.2009
      6 C         139.6519  143.5943  161.1297 C.ar    1  UNL1        0.1132
      7 N         138.9407  142.5107  160.3748 N.ar    1  UNL1       -0.2112
      8 C         139.7705  143.5145  162.6229 C.ar    1  UNL1        0.0238
      9 C         139.0638  144.5173  163.4860 C.ar    1  UNL1        0.0329
     10 C         139.1824  144.4375  164.9792 C.ar    1  UNL1        0.1591
     11 F         138.4757  145.4403  165.8423 F       1  UNL1       -0.2025
     12 C         140.0076  143.3549  165.6092 C.ar    1  UNL1        0.1256
     13 N         140.3075  143.0265  167.0417 N.ar    1  UNL1       -0.2287
     14 C         141.1995  141.8207  167.0640 C.ar    1  UNL1        0.1207
     15 C         141.7444  141.1496  168.2898 C.3     1  UNL1        0.0718
     16 N         141.4509  141.4040  165.6451 N.ar    1  UNL1       -0.3167
     17 C         140.7143  142.3521  164.7460 C.ar    1  UNL1        0.0808
     18 C         140.5957  142.4319  163.2529 C.ar    1  UNL1        0.0205
     19 C         142.2914  140.2428  165.2031 C.3     1  UNL1        0.0867
     20 C         143.7326  140.4537  164.8445 C.3     1  UNL1        0.0245
     21 C         141.6908  138.8709  165.1197 C.3     1  UNL1        0.0245
     22 N         138.1110  141.5069  158.1267 N.pl3   1  UNL1       -0.2680
     23 H         137.1574  141.6069  157.9034 H       1  UNL1        0.1565
     24 N         140.7500  135.8923  155.1667 N.3     1  UNL1       -0.2698
     25 C         139.6802  136.4577  154.2804 C.3     1  UNL1        0.0786
     26 C         138.9384  137.6938  154.6951 C.3     1  UNL1        0.0629
     27 C         139.2665  138.3643  155.9962 C.ar    1  UNL1        0.0591
     28 N         138.5247  139.6003  156.4109 N.ar    1  UNL1       -0.2351
     29 C         138.8527  140.2709  157.7119 C.ar    1  UNL1        0.1339
     30 C         139.9226  139.7053  158.5983 C.ar    1  UNL1        0.0342
     31 C         140.6644  138.4693  158.1836 C.ar    1  UNL1        0.0011
     32 C         140.3363  137.7988  156.8825 C.ar    1  UNL1        0.0076
     33 C         141.0780  136.5628  156.4678 C.3     1  UNL1        0.1003
     34 N         142.9754  132.1841  153.9227 N.3     1  UNL1       -0.2726
     35 C         142.1829  132.9579  152.9112 C.3     1  UNL1        0.0735
     36 C         141.4411  134.1940  153.3259 C.3     1  UNL1        0.0333
     37 C         141.4918  134.6562  154.7520 C.3     1  UNL1        0.0606
     38 C         142.2843  133.8823  155.7635 C.3     1  UNL1        0.0333
     39 C         143.0261  132.6463  155.3488 C.3     1  UNL1        0.0735
     40 C         144.4758  130.1513  154.5276 C.3     1  UNL1        0.0188
     41 C         143.7172  130.9481  153.5080 C.3     1  UNL1        0.0721
@<TRIPOS>BOND
     1    40    41    1
     2    41    34    1
     3    34    35    1
     4    35    36    1
     5    36    37    1
     6    37    24    1
     7    24    25    1
     8    25    26    1
     9    26    27    1
    10    27    28   ar
    11    28    29   ar
    12    29    22    1
    13    22     1    1
    14     1     2   ar
    15     2     3   ar
    16     3     4   ar
    17     4     5    1
    18     4     6   ar
    19     6     8    1
    20     8     9   ar
    21     9    10   ar
    22    10    11    1
    23    10    12   ar
    24    12    13   ar
    25    13    14   ar
    26    14    15    1
    27    14    16   ar
    28    16    19    1
    29    19    20    1
    30    19    21    1
    31    16    17   ar
    32    17    18   ar
    33     6     7   ar
    34    29    30   ar
    35    30    31   ar
    36    31    32   ar
    37    32    33    1
    38    37    38    1
    39    38    39    1
    40    39    34    1
    41    33    24    1
    42    32    27   ar
    43     7     1   ar
    44    18     8   ar
    45    17    12   ar
    46    22    23    1
