@<TRIPOS>MOLECULE
*****
 37 40 0 0 0
SMALL
GASTEIGER

@<TRIPOS>ATOM
      1 C         141.2283  139.1064  161.5353 C.ar    1  UNL1        0.2204
      2 N         139.8221  138.7300  161.1734 N.ar    1  UNL1       -0.2089
      3 C         139.4757  138.4025  159.7513 C.ar    1  UNL1        0.1402
      4 C         140.5355  138.4512  158.6908 C.ar    1  UNL1        0.1773
      5 C         141.9417  138.8276  159.0526 C.ar    1  UNL1        0.1402
      6 N         142.2881  139.1552  160.4749 N.ar    1  UNL1       -0.2089
      7 C         140.7661  141.8758  162.5921 C.3     1  UNL1        0.0233
      8 C         141.3436  140.8186  163.4859 C.3     1  UNL1        0.0955
      9 C         141.6900  141.1462  164.9081 C.3     1  UNL1        0.1149
     10 N         142.2675  140.0890  165.8019 N.pl3   1  UNL1       -0.2586
     11 C         142.4986  138.7044  165.2736 C.3     1  UNL1        0.1167
     12 C         142.1522  138.3768  163.8514 C.3     1  UNL1        0.1151
     13 N         141.5747  139.4340  162.9575 N.pl3   1  UNL1       -0.2764
     14 C         142.6139  140.4166  167.2242 C.ar    1  UNL1        0.3185
     15 N         142.7653  141.7933  167.8001 N.ar    1  UNL1       -0.1701
     16 C         143.1146  141.6525  169.2521 C.ar    1  UNL1        0.2766
     17 N         143.1792  140.1887  169.5735 N.ar    1  UNL1       -0.0499
     18 O         142.8697  139.4249  168.3202 O.2     1  UNL1       -0.3164
     19 C         143.3570  142.7779  170.2138 C.3     1  UNL1        0.4557
     20 F         143.5993  143.9033  171.1755 F       1  UNL1       -0.1631
     21 F         144.8363  142.6290  170.0153 F       1  UNL1       -0.1631
     22 F         141.8776  142.9268  170.4123 F       1  UNL1       -0.1631
     23 O         140.1891  138.1236  157.2686 O.3     1  UNL1       -0.4674
     24 C         141.2795  137.8664  156.2712 C.3     1  UNL1        0.2344
     25 C         141.8431  136.4851  156.1156 C.ar    1  UNL1        0.0486
     26 C         143.1059  136.1053  156.8305 C.ar    1  UNL1        0.0013
     27 C         143.6694  134.7239  156.6748 C.ar    1  UNL1       -0.0034
     28 C         142.9701  133.7223  155.8043 C.ar    1  UNL1       -0.0057
     29 C         141.7073  134.1021  155.0895 C.ar    1  UNL1        0.0261
     30 C         141.1437  135.4834  155.2451 C.ar    1  UNL1        0.1393
     31 F         139.8809  135.8632  154.5302 F       1  UNL1       -0.2044
     32 C         143.5336  132.3410  155.6487 C.3     1  UNL1        0.1278
     33 S         144.1731  131.6555  156.8197 S.3     1  UNL1        0.0697
     34 C         144.8126  130.9700  157.9906 C.3     1  UNL1        0.1171
     35 N         142.8411  131.5847  157.5057 N.2     1  UNL1       -0.2504
     36 O         145.5052  131.7262  156.1336 O.2     1  UNL1       -0.2460
     37 H         142.7788  131.7352  158.4766 H       1  UNL1        0.1971
@<TRIPOS>BOND
     1     8     7    1
     2     8     9    1
     3     9    10    1
     4    10    14    1
     5    14    15   ar
     6    15    16   ar
     7    16    19    1
     8    19    20    1
     9    19    21    1
    10    19    22    1
    11    16    17   ar
    12    17    18   ar
    13    10    11    1
    14    11    12    1
    15    12    13    1
    16    13     1    1
    17     1     2   ar
    18     2     3   ar
    19     3     4   ar
    20     4    23    1
    21    23    24    1
    22    24    25    1
    23    25    26   ar
    24    26    27   ar
    25    27    28   ar
    26    28    32    1
    27    32    33    1
    28    33    34    1
    29    33    35    2
    30    33    36    2
    31    28    29   ar
    32    29    30   ar
    33    30    31    1
    34     4     5   ar
    35     5     6   ar
    36    13     8    1
    37     6     1   ar
    38    18    14   ar
    39    30    25   ar
    40    35    37    1
@<TRIPOS>MOLECULE
*****
 37 40 0 0 0
SMALL
GASTEIGER

@<TRIPOS>ATOM
      1 C         139.6349  140.5549  159.8814 C.ar    1  UNL1        0.2204
      2 N         139.8106  141.9962  159.5049 N.ar    1  UNL1       -0.2089
      3 C         139.0971  143.0656  160.2776 C.ar    1  UNL1        0.1402
      4 C         138.2077  142.6937  161.4270 C.ar    1  UNL1        0.1773
      5 C         138.0320  141.2524  161.8035 C.ar    1  UNL1        0.1402
      6 N         138.7456  140.1830  161.0307 N.ar    1  UNL1       -0.2089
      7 C         142.4213  139.7533  160.6520 C.3     1  UNL1        0.0233
      8 C         141.7417  139.0847  159.4939 C.3     1  UNL1        0.0955
      9 C         142.4552  138.0153  158.7211 C.3     1  UNL1        0.1149
     10 N         141.7756  137.3467  157.5630 N.pl3   1  UNL1       -0.2586
     11 C         140.3824  137.7475  157.1778 C.3     1  UNL1        0.1167
     12 C         139.6689  138.8168  157.9506 C.3     1  UNL1        0.1151
     13 N         140.3485  139.4854  159.1086 N.pl3   1  UNL1       -0.2764
     14 C         142.4892  136.2773  156.7902 C.ar    1  UNL1        0.3185
     15 N         143.0924  135.0291  157.3631 N.ar    1  UNL1       -0.1701
     16 C         143.7008  134.2487  156.2358 C.ar    1  UNL1        0.2766
     17 N         143.4737  135.0146  154.9662 N.ar    1  UNL1       -0.0499
     18 O         142.7249  136.2683  155.3089 O.2     1  UNL1       -0.3164
     19 C         144.4116  132.9333  156.3568 C.3     1  UNL1        0.4557
     20 F         145.1224  131.6180  156.4778 F       1  UNL1       -0.1631
     21 F         144.9170  133.3311  157.7120 F       1  UNL1       -0.1631
     22 F         143.9063  132.5356  155.0016 F       1  UNL1       -0.1631
     23 O         137.4942  143.7631  162.1997 O.3     1  UNL1       -0.4674
     24 C         138.1258  144.3494  163.4274 C.3     1  UNL1        0.2344
     25 C         139.6088  144.2485  163.6290 C.ar    1  UNL1        0.0486
     26 C         140.1791  143.1355  164.4571 C.ar    1  UNL1        0.0013
     27 C         141.6621  143.0346  164.6587 C.ar    1  UNL1       -0.0034
     28 C         142.5747  144.0468  164.0321 C.ar    1  UNL1       -0.0057
     29 C         142.0044  145.1598  163.2039 C.ar    1  UNL1        0.0261
     30 C         140.5215  145.2607  163.0023 C.ar    1  UNL1        0.1393
     31 F         139.9511  146.3738  162.1742 F       1  UNL1       -0.2044
     32 C         144.0577  143.9459  164.2336 C.3     1  UNL1        0.1278
     33 S         144.8182  142.7955  163.6436 S.3     1  UNL1        0.0697
     34 C         145.5788  141.6451  163.0536 C.3     1  UNL1        0.1171
     35 N         144.8465  143.4947  162.3169 N.2     1  UNL1       -0.2504
     36 O         144.7899  142.0963  164.9704 O.2     1  UNL1       -0.2460
     37 H         144.7296  142.9793  161.4862 H       1  UNL1        0.1971
@<TRIPOS>BOND
     1     8     7    1
     2     8     9    1
     3     9    10    1
     4    10    14    1
     5    14    15   ar
     6    15    16   ar
     7    16    19    1
     8    19    20    1
     9    19    21    1
    10    19    22    1
    11    16    17   ar
    12    17    18   ar
    13    10    11    1
    14    11    12    1
    15    12    13    1
    16    13     1    1
    17     1     2   ar
    18     2     3   ar
    19     3     4   ar
    20     4    23    1
    21    23    24    1
    22    24    25    1
    23    25    26   ar
    24    26    27   ar
    25    27    28   ar
    26    28    32    1
    27    32    33    1
    28    33    34    1
    29    33    35    2
    30    33    36    2
    31    28    29   ar
    32    29    30   ar
    33    30    31    1
    34     4     5   ar
    35     5     6   ar
    36    13     8    1
    37     6     1   ar
    38    18    14   ar
    39    30    25   ar
    40    35    37    1
@<TRIPOS>MOLECULE
*****
 37 40 0 0 0
SMALL
GASTEIGER

@<TRIPOS>ATOM
      1 C         139.0608  141.3712  160.1832 C.ar    1  UNL1        0.2204
      2 N         137.9628  141.4500  161.2022 N.ar    1  UNL1       -0.2089
      3 C         137.7791  140.3399  162.1940 C.ar    1  UNL1        0.1402
      4 C         138.6933  139.1510  162.1670 C.ar    1  UNL1        0.1773
      5 C         139.7913  139.0722  161.1480 C.ar    1  UNL1        0.1402
      6 N         139.9750  140.1824  160.1561 N.ar    1  UNL1       -0.2089
      7 C         140.7259  143.7620  160.8988 C.3     1  UNL1        0.0233
      8 C         140.0770  143.6767  159.5491 C.3     1  UNL1        0.0955
      9 C         140.2607  144.7868  158.5572 C.3     1  UNL1        0.1149
     10 N         139.6119  144.7016  157.2075 N.pl3   1  UNL1       -0.2586
     11 C         138.7793  143.5063  156.8496 C.3     1  UNL1        0.1167
     12 C         138.5957  142.3962  157.8415 C.3     1  UNL1        0.1151
     13 N         139.2445  142.4814  159.1913 N.pl3   1  UNL1       -0.2764
     14 C         139.7956  145.8118  156.2156 C.ar    1  UNL1        0.3185
     15 N         139.1320  147.1562  156.2640 N.ar    1  UNL1       -0.1701
     16 C         139.6015  147.9477  155.0794 C.ar    1  UNL1        0.2766
     17 N         140.5552  147.0925  154.2989 N.ar    1  UNL1       -0.0499
     18 O         140.6751  145.7724  155.0011 O.2     1  UNL1       -0.3164
     19 C         139.1896  149.3485  154.7357 C.3     1  UNL1        0.4557
     20 F         138.7776  150.7493  154.3920 F       1  UNL1       -0.1631
     21 F         138.7714  149.5746  156.1584 F       1  UNL1       -0.1631
     22 F         139.6077  149.1224  153.3130 F       1  UNL1       -0.1631
     23 O         138.5096  138.0409  163.1589 O.3     1  UNL1       -0.4674
     24 C         139.5600  137.7819  164.1978 C.3     1  UNL1        0.2344
     25 C         139.5271  138.5264  165.4995 C.ar    1  UNL1        0.0486
     26 C         138.2909  138.4983  166.3486 C.ar    1  UNL1        0.0013
     27 C         138.2580  139.2429  167.6504 C.ar    1  UNL1       -0.0034
     28 C         139.4613  140.0156  168.1030 C.ar    1  UNL1       -0.0057
     29 C         140.6976  140.0438  167.2539 C.ar    1  UNL1        0.0261
     30 C         140.7305  139.2992  165.9522 C.ar    1  UNL1        0.1393
     31 F         141.9667  139.3274  165.1031 F       1  UNL1       -0.2044
     32 C         139.4284  140.7601  169.4047 C.3     1  UNL1        0.1278
     33 S         140.6499  140.8049  170.2743 S.3     1  UNL1        0.0697
     34 C         141.8713  140.8497  171.1438 C.3     1  UNL1        0.1171
     35 N         140.3573  139.4150  170.7567 N.2     1  UNL1       -0.2504
     36 O         140.9424  142.1948  169.7918 O.2     1  UNL1       -0.2460
     37 H         140.5077  139.1799  171.7008 H       1  UNL1        0.1971
@<TRIPOS>BOND
     1     8     7    1
     2     8     9    1
     3     9    10    1
     4    10    14    1
     5    14    15   ar
     6    15    16   ar
     7    16    19    1
     8    19    20    1
     9    19    21    1
    10    19    22    1
    11    16    17   ar
    12    17    18   ar
    13    10    11    1
    14    11    12    1
    15    12    13    1
    16    13     1    1
    17     1     2   ar
    18     2     3   ar
    19     3     4   ar
    20     4    23    1
    21    23    24    1
    22    24    25    1
    23    25    26   ar
    24    26    27   ar
    25    27    28   ar
    26    28    32    1
    27    32    33    1
    28    33    34    1
    29    33    35    2
    30    33    36    2
    31    28    29   ar
    32    29    30   ar
    33    30    31    1
    34     4     5   ar
    35     5     6   ar
    36    13     8    1
    37     6     1   ar
    38    18    14   ar
    39    30    25   ar
    40    35    37    1
@<TRIPOS>MOLECULE
*****
 37 40 0 0 0
SMALL
GASTEIGER

@<TRIPOS>ATOM
      1 C         141.5224  143.5740  159.7652 C.ar    1  UNL1        0.2204
      2 N         140.5133  142.5324  160.1483 N.ar    1  UNL1       -0.2089
      3 C         139.3940  142.8810  161.0841 C.ar    1  UNL1        0.1402
      4 C         139.2838  144.2711  161.6367 C.ar    1  UNL1        0.1773
      5 C         140.2929  145.3127  161.2536 C.ar    1  UNL1        0.1402
      6 N         141.4122  144.9641  160.3178 N.ar    1  UNL1       -0.2089
      7 C         144.1833  142.7247  160.8598 C.3     1  UNL1        0.0233
      8 C         143.9721  142.8008  159.3767 C.3     1  UNL1        0.0955
      9 C         145.0914  142.4522  158.4409 C.3     1  UNL1        0.1149
     10 N         144.8802  142.5283  156.9577 N.pl3   1  UNL1       -0.2586
     11 C         143.5498  142.9530  156.4104 C.3     1  UNL1        0.1167
     12 C         142.4305  143.3015  157.3462 C.3     1  UNL1        0.1151
     13 N         142.6417  143.2254  158.8294 N.pl3   1  UNL1       -0.2764
     14 C         145.9995  142.1798  156.0219 C.ar    1  UNL1        0.3185
     15 N         147.4650  142.2601  156.3316 N.ar    1  UNL1       -0.1701
     16 C         148.2210  141.8197  155.1132 C.ar    1  UNL1        0.2766
     17 N         147.2227  141.4670  154.0505 N.ar    1  UNL1       -0.0499
     18 O         145.8498  141.6896  154.6122 O.2     1  UNL1       -0.3164
     19 C         149.7133  141.7449  154.9807 C.3     1  UNL1        0.4557
     20 F         151.2056  141.6702  154.8482 F       1  UNL1       -0.1631
     21 F         149.8598  142.1006  156.4306 F       1  UNL1       -0.1631
     22 F         149.5667  141.3893  153.5309 F       1  UNL1       -0.1631
     23 O         138.1645  144.6196  162.5725 O.3     1  UNL1       -0.4674
     24 C         138.4149  144.6846  164.0500 C.3     1  UNL1        0.2344
     25 C         138.9018  143.4695  164.7824 C.ar    1  UNL1        0.0486
     26 C         140.0762  143.5732  165.7097 C.ar    1  UNL1        0.0013
     27 C         140.5631  142.3580  166.4421 C.ar    1  UNL1       -0.0034
     28 C         139.8755  141.0392  166.2471 C.ar    1  UNL1       -0.0057
     29 C         138.7011  140.9355  165.3197 C.ar    1  UNL1        0.0261
     30 C         138.2142  142.1506  164.5874 C.ar    1  UNL1        0.1393
     31 F         137.0398  142.0470  163.6600 F       1  UNL1       -0.2044
     32 C         140.3624  139.8241  166.9794 C.3     1  UNL1        0.1278
     33 S         140.5897  139.8822  168.4609 S.3     1  UNL1        0.0697
     34 C         140.8170  139.9404  169.9425 C.3     1  UNL1        0.1171
     35 N         142.0723  139.8883  168.2332 N.2     1  UNL1       -0.2504
     36 O         139.1071  139.8761  168.6886 O.2     1  UNL1       -0.2460
     37 H         142.6646  139.3800  168.8333 H       1  UNL1        0.1971
@<TRIPOS>BOND
     1     8     7    1
     2     8     9    1
     3     9    10    1
     4    10    14    1
     5    14    15   ar
     6    15    16   ar
     7    16    19    1
     8    19    20    1
     9    19    21    1
    10    19    22    1
    11    16    17   ar
    12    17    18   ar
    13    10    11    1
    14    11    12    1
    15    12    13    1
    16    13     1    1
    17     1     2   ar
    18     2     3   ar
    19     3     4   ar
    20     4    23    1
    21    23    24    1
    22    24    25    1
    23    25    26   ar
    24    26    27   ar
    25    27    28   ar
    26    28    32    1
    27    32    33    1
    28    33    34    1
    29    33    35    2
    30    33    36    2
    31    28    29   ar
    32    29    30   ar
    33    30    31    1
    34     4     5   ar
    35     5     6   ar
    36    13     8    1
    37     6     1   ar
    38    18    14   ar
    39    30    25   ar
    40    35    37    1
@<TRIPOS>MOLECULE
*****
 37 40 0 0 0
SMALL
GASTEIGER

@<TRIPOS>ATOM
      1 C         140.3646  141.4072  160.1045 C.ar    1  UNL1        0.2204
      2 N         138.8670  141.4784  160.1523 N.ar    1  UNL1       -0.2089
      3 C         138.1925  142.5496  160.9570 C.ar    1  UNL1        0.1402
      4 C         139.0155  143.5496  161.7138 C.ar    1  UNL1        0.1773
      5 C         140.5130  143.4784  161.6660 C.ar    1  UNL1        0.1402
      6 N         141.1876  142.4071  160.8613 N.ar    1  UNL1       -0.2089
      7 C         141.6035  139.0496  161.4854 C.3     1  UNL1        0.0233
      8 C         141.6586  139.1571  159.9903 C.3     1  UNL1        0.0955
      9 C         142.3331  138.0859  159.1856 C.3     1  UNL1        0.1149
     10 N         142.3881  138.1935  157.6905 N.pl3   1  UNL1       -0.2586
     11 C         141.7687  139.3723  157.0000 C.3     1  UNL1        0.1167
     12 C         141.0942  140.4435  157.8047 C.3     1  UNL1        0.1151
     13 N         141.0391  140.3359  159.2998 N.pl3   1  UNL1       -0.2764
     14 C         143.0627  137.1222  156.8858 C.ar    1  UNL1        0.3185
     15 N         142.8141  135.6472  156.9975 N.ar    1  UNL1       -0.1701
     16 C         143.7020  134.9513  156.0089 C.ar    1  UNL1        0.2766
     17 N         144.4994  135.9963  155.2862 N.ar    1  UNL1       -0.0499
     18 O         144.1042  137.3380  155.8281 O.2     1  UNL1       -0.3164
     19 C         143.7791  133.4705  155.7828 C.3     1  UNL1        0.4557
     20 F         143.8562  131.9896  155.5566 F       1  UNL1       -0.1631
     21 F         143.0539  133.6318  154.4796 F       1  UNL1       -0.1631
     22 F         144.5043  133.3092  157.0859 F       1  UNL1       -0.1631
     23 O         138.3409  144.6208  162.5184 O.3     1  UNL1       -0.4674
     24 C         137.8601  144.3245  163.9080 C.3     1  UNL1        0.2344
     25 C         138.5190  143.2458  164.7155 C.ar    1  UNL1        0.0486
     26 C         139.6344  143.5895  165.6578 C.ar    1  UNL1        0.0013
     27 C         140.2933  142.5106  166.4653 C.ar    1  UNL1       -0.0034
     28 C         139.8369  141.0882  166.3306 C.ar    1  UNL1       -0.0057
     29 C         138.7215  140.7445  165.3883 C.ar    1  UNL1        0.0261
     30 C         138.0626  141.8232  164.5808 C.ar    1  UNL1        0.1393
     31 F         136.9472  141.4795  163.6386 F       1  UNL1       -0.2044
     32 C         140.4958  140.0094  167.1380 C.3     1  UNL1        0.1278
     33 S         140.5600  140.1243  168.6323 S.3     1  UNL1        0.0697
     34 C         140.6242  140.2391  170.1265 C.3     1  UNL1        0.1171
     35 N         139.0950  139.8138  168.7191 N.2     1  UNL1       -0.2504
     36 O         142.0249  140.4348  168.5454 O.2     1  UNL1       -0.2460
     37 H         138.5297  140.2859  169.3724 H       1  UNL1        0.1971
@<TRIPOS>BOND
     1     8     7    1
     2     8     9    1
     3     9    10    1
     4    10    14    1
     5    14    15   ar
     6    15    16   ar
     7    16    19    1
     8    19    20    1
     9    19    21    1
    10    19    22    1
    11    16    17   ar
    12    17    18   ar
    13    10    11    1
    14    11    12    1
    15    12    13    1
    16    13     1    1
    17     1     2   ar
    18     2     3   ar
    19     3     4   ar
    20     4    23    1
    21    23    24    1
    22    24    25    1
    23    25    26   ar
    24    26    27   ar
    25    27    28   ar
    26    28    32    1
    27    32    33    1
    28    33    34    1
    29    33    35    2
    30    33    36    2
    31    28    29   ar
    32    29    30   ar
    33    30    31    1
    34     4     5   ar
    35     5     6   ar
    36    13     8    1
    37     6     1   ar
    38    18    14   ar
    39    30    25   ar
    40    35    37    1
@<TRIPOS>MOLECULE
*****
 37 40 0 0 0
SMALL
GASTEIGER

@<TRIPOS>ATOM
      1 C         140.7664  138.4971  160.9615 C.ar    1  UNL1        0.2204
      2 N         139.7001  138.6686  159.9205 N.ar    1  UNL1       -0.2089
      3 C         140.0165  138.4220  158.4752 C.ar    1  UNL1        0.1402
      4 C         141.3991  138.0038  158.0708 C.ar    1  UNL1        0.1773
      5 C         142.4654  137.8323  159.1118 C.ar    1  UNL1        0.1402
      6 N         142.1490  138.0789  160.5572 N.ar    1  UNL1       -0.2089
      7 C         141.2613  141.2000  162.1654 C.3     1  UNL1        0.0233
      8 C         140.6974  140.0951  163.0089 C.3     1  UNL1        0.0955
      9 C         140.3810  140.3417  164.4542 C.3     1  UNL1        0.1149
     10 N         139.8172  139.2368  165.2976 N.pl3   1  UNL1       -0.2586
     11 C         139.5697  137.8854  164.6957 C.3     1  UNL1        0.1167
     12 C         139.8861  137.6388  163.2504 C.3     1  UNL1        0.1151
     13 N         140.4500  138.7437  162.4069 N.pl3   1  UNL1       -0.2764
     14 C         139.5008  139.4835  166.7430 C.ar    1  UNL1        0.3185
     15 N         140.3498  140.2503  167.7131 N.ar    1  UNL1       -0.1701
     16 C         139.6536  140.2473  169.0417 C.ar    1  UNL1        0.2766
     17 N         138.3741  139.4785  168.8928 N.ar    1  UNL1       -0.0499
     18 O         138.2797  139.0065  167.4721 O.2     1  UNL1       -0.3164
     19 C         140.1496  140.8987  170.2985 C.3     1  UNL1        0.4557
     20 F         140.6456  141.5501  171.5554 F       1  UNL1       -0.1631
     21 F         140.8713  139.6366  170.6678 F       1  UNL1       -0.1631
     22 F         139.4279  142.1608  169.9292 F       1  UNL1       -0.1631
     23 O         141.7155  137.7572  156.6254 O.3     1  UNL1       -0.4674
     24 C         142.8858  136.8974  156.2499 C.3     1  UNL1        0.2344
     25 C         142.7294  135.4074  156.1783 C.ar    1  UNL1        0.0486
     26 C         143.5982  134.5207  157.0204 C.ar    1  UNL1        0.0013
     27 C         143.4417  133.0306  156.9487 C.ar    1  UNL1       -0.0034
     28 C         142.4166  132.4271  156.0350 C.ar    1  UNL1       -0.0057
     29 C         141.5478  133.3138  155.1929 C.ar    1  UNL1        0.0261
     30 C         141.7042  134.8039  155.2646 C.ar    1  UNL1        0.1393
     31 F         140.8355  135.6905  154.4225 F       1  UNL1       -0.2044
     32 C         142.2602  130.9371  155.9634 C.3     1  UNL1        0.1278
     33 S         143.4724  130.0538  155.9851 S.3     1  UNL1        0.0697
     34 C         144.6845  129.1705  156.0068 C.3     1  UNL1        0.1171
     35 N         143.7788  130.4395  154.5683 N.2     1  UNL1       -0.2504
     36 O         143.1659  129.6681  157.4019 O.2     1  UNL1       -0.2460
     37 H         144.1185  129.7648  153.9369 H       1  UNL1        0.1971
@<TRIPOS>BOND
     1     8     7    1
     2     8     9    1
     3     9    10    1
     4    10    14    1
     5    14    15   ar
     6    15    16   ar
     7    16    19    1
     8    19    20    1
     9    19    21    1
    10    19    22    1
    11    16    17   ar
    12    17    18   ar
    13    10    11    1
    14    11    12    1
    15    12    13    1
    16    13     1    1
    17     1     2   ar
    18     2     3   ar
    19     3     4   ar
    20     4    23    1
    21    23    24    1
    22    24    25    1
    23    25    26   ar
    24    26    27   ar
    25    27    28   ar
    26    28    32    1
    27    32    33    1
    28    33    34    1
    29    33    35    2
    30    33    36    2
    31    28    29   ar
    32    29    30   ar
    33    30    31    1
    34     4     5   ar
    35     5     6   ar
    36    13     8    1
    37     6     1   ar
    38    18    14   ar
    39    30    25   ar
    40    35    37    1
@<TRIPOS>MOLECULE
*****
 37 40 0 0 0
SMALL
GASTEIGER

@<TRIPOS>ATOM
      1 C         138.9877  142.5227  160.9779 C.ar    1  UNL1        0.2204
      2 N         139.7607  141.2710  161.2711 N.ar    1  UNL1       -0.2089
      3 C         139.4583  140.4746  162.5057 C.ar    1  UNL1        0.1402
      4 C         138.3828  140.9298  163.4471 C.ar    1  UNL1        0.1773
      5 C         137.6098  142.1814  163.1539 C.ar    1  UNL1        0.1402
      6 N         137.9123  142.9779  161.9193 N.ar    1  UNL1       -0.2089
      7 C         138.1310  141.5050  158.2890 C.3     1  UNL1        0.0233
      8 C         138.8619  142.8103  158.3989 C.3     1  UNL1        0.0955
      9 C         139.1644  143.6067  157.1643 C.3     1  UNL1        0.1149
     10 N         139.8952  144.9120  157.2742 N.pl3   1  UNL1       -0.2586
     11 C         140.3236  145.4208  158.6186 C.3     1  UNL1        0.1167
     12 C         140.0211  144.6244  159.8532 C.3     1  UNL1        0.1151
     13 N         139.2902  143.3191  159.7433 N.pl3   1  UNL1       -0.2764
     14 C         140.1977  145.7084  156.0396 C.ar    1  UNL1        0.3185
     15 N         139.6487  147.0645  155.7086 N.ar    1  UNL1       -0.1701
     16 C         140.2140  147.4827  154.3837 C.ar    1  UNL1        0.2766
     17 N         141.1125  146.3851  153.8957 N.ar    1  UNL1       -0.0499
     18 O         141.1024  145.2886  154.9192 O.2     1  UNL1       -0.3164
     19 C         139.9306  148.7722  153.6716 C.3     1  UNL1        0.4557
     20 F         139.6472  150.0617  152.9596 F       1  UNL1       -0.1631
     21 F         139.0118  149.1843  154.7834 F       1  UNL1       -0.1631
     22 F         140.8494  148.3602  152.5598 F       1  UNL1       -0.1631
     23 O         138.0804  140.1334  164.6817 O.3     1  UNL1       -0.4674
     24 C         139.0697  139.1240  165.1842 C.3     1  UNL1        0.2344
     25 C         140.0396  139.4984  166.2654 C.ar    1  UNL1        0.0486
     26 C         141.4910  139.6887  165.9380 C.ar    1  UNL1        0.0013
     27 C         142.4610  140.0631  167.0193 C.ar    1  UNL1       -0.0034
     28 C         141.9794  140.2472  168.4279 C.ar    1  UNL1       -0.0057
     29 C         140.5280  140.0570  168.7553 C.ar    1  UNL1        0.0261
     30 C         139.5581  139.6826  167.6741 C.ar    1  UNL1        0.1393
     31 F         138.1067  139.4923  168.0015 F       1  UNL1       -0.2044
     32 C         142.9493  140.6216  169.5091 C.3     1  UNL1        0.1278
     33 S         142.8897  141.9854  170.1309 S.3     1  UNL1        0.0697
     34 C         142.8300  143.3491  170.7527 C.3     1  UNL1        0.1171
     35 N         142.2496  141.3995  171.3545 N.2     1  UNL1       -0.2504
     36 O         143.5298  142.5712  168.9074 O.2     1  UNL1       -0.2460
     37 H         141.5285  141.8872  171.8142 H       1  UNL1        0.1971
@<TRIPOS>BOND
     1     8     7    1
     2     8     9    1
     3     9    10    1
     4    10    14    1
     5    14    15   ar
     6    15    16   ar
     7    16    19    1
     8    19    20    1
     9    19    21    1
    10    19    22    1
    11    16    17   ar
    12    17    18   ar
    13    10    11    1
    14    11    12    1
    15    12    13    1
    16    13     1    1
    17     1     2   ar
    18     2     3   ar
    19     3     4   ar
    20     4    23    1
    21    23    24    1
    22    24    25    1
    23    25    26   ar
    24    26    27   ar
    25    27    28   ar
    26    28    32    1
    27    32    33    1
    28    33    34    1
    29    33    35    2
    30    33    36    2
    31    28    29   ar
    32    29    30   ar
    33    30    31    1
    34     4     5   ar
    35     5     6   ar
    36    13     8    1
    37     6     1   ar
    38    18    14   ar
    39    30    25   ar
    40    35    37    1
@<TRIPOS>MOLECULE
*****
 37 40 0 0 0
SMALL
GASTEIGER

@<TRIPOS>ATOM
      1 C         143.4038  141.0360  160.1597 C.ar    1  UNL1        0.2204
      2 N         142.3221  142.0752  160.1562 N.ar    1  UNL1       -0.2089
      3 C         142.4863  143.3315  160.9590 C.ar    1  UNL1        0.1402
      4 C         143.7323  143.5487  161.7656 C.ar    1  UNL1        0.1773
      5 C         144.8140  142.5096  161.7692 C.ar    1  UNL1        0.1402
      6 N         144.6498  141.2532  160.9662 N.ar    1  UNL1       -0.2089
      7 C         143.2023  138.3842  161.5480 C.3     1  UNL1        0.0233
      8 C         143.1388  138.4538  160.0509 C.3     1  UNL1        0.0955
      9 C         142.9746  137.1975  159.2480 C.3     1  UNL1        0.1149
     10 N         142.9111  137.2671  157.7509 N.pl3   1  UNL1       -0.2586
     11 C         143.0119  138.5930  157.0568 C.3     1  UNL1        0.1167
     12 C         143.1761  139.8493  157.8598 C.3     1  UNL1        0.1151
     13 N         143.2396  139.7796  159.3568 N.pl3   1  UNL1       -0.2764
     14 C         142.7469  136.0107  156.9480 C.ar    1  UNL1        0.3185
     15 N         143.7019  134.8545  156.9146 N.ar    1  UNL1       -0.1701
     16 C         143.1440  133.8193  155.9835 C.ar    1  UNL1        0.2766
     17 N         141.8441  134.3356  155.4414 N.ar    1  UNL1       -0.0499
     18 O         141.5987  135.6900  156.0375 O.2     1  UNL1       -0.3164
     19 C         143.7751  132.4993  155.6525 C.3     1  UNL1        0.4557
     20 F         144.4063  131.1794  155.3216 F       1  UNL1       -0.1631
     21 F         142.7015  132.2405  154.6375 F       1  UNL1       -0.1631
     22 F         144.8488  132.7582  156.6676 F       1  UNL1       -0.1631
     23 O         143.8965  144.8050  162.5684 O.3     1  UNL1       -0.4674
     24 C         143.0377  145.0414  163.7754 C.3     1  UNL1        0.2344
     25 C         142.6682  143.8949  164.6691 C.ar    1  UNL1        0.0486
     26 C         141.2409  143.4417  164.7564 C.ar    1  UNL1        0.0013
     27 C         140.8714  142.2951  165.6502 C.ar    1  UNL1       -0.0034
     28 C         141.9292  141.6017  166.4567 C.ar    1  UNL1       -0.0057
     29 C         143.3564  142.0549  166.3694 C.ar    1  UNL1        0.0261
     30 C         143.7259  143.2015  165.4757 C.ar    1  UNL1        0.1393
     31 F         145.1532  143.6546  165.3884 F       1  UNL1       -0.2044
     32 C         141.5596  140.4552  167.3505 C.3     1  UNL1        0.1278
     33 S         142.1493  140.3563  168.7262 S.3     1  UNL1        0.0697
     34 C         142.7390  140.2574  170.1018 C.3     1  UNL1        0.1171
     35 N         142.9770  139.1849  168.2872 N.2     1  UNL1       -0.2504
     36 O         141.3216  141.5277  169.1651 O.2     1  UNL1       -0.2460
     37 H         143.1146  138.4236  168.8961 H       1  UNL1        0.1971
@<TRIPOS>BOND
     1     8     7    1
     2     8     9    1
     3     9    10    1
     4    10    14    1
     5    14    15   ar
     6    15    16   ar
     7    16    19    1
     8    19    20    1
     9    19    21    1
    10    19    22    1
    11    16    17   ar
    12    17    18   ar
    13    10    11    1
    14    11    12    1
    15    12    13    1
    16    13     1    1
    17     1     2   ar
    18     2     3   ar
    19     3     4   ar
    20     4    23    1
    21    23    24    1
    22    24    25    1
    23    25    26   ar
    24    26    27   ar
    25    27    28   ar
    26    28    32    1
    27    32    33    1
    28    33    34    1
    29    33    35    2
    30    33    36    2
    31    28    29   ar
    32    29    30   ar
    33    30    31    1
    34     4     5   ar
    35     5     6   ar
    36    13     8    1
    37     6     1   ar
    38    18    14   ar
    39    30    25   ar
    40    35    37    1
@<TRIPOS>MOLECULE
*****
 37 40 0 0 0
SMALL
GASTEIGER

@<TRIPOS>ATOM
      1 C         140.1310  143.9292  160.9836 C.ar    1  UNL1        0.2204
      2 N         139.8160  145.3948  160.9305 N.ar    1  UNL1       -0.2089
      3 C         140.0081  146.1574  159.6532 C.ar    1  UNL1        0.1402
      4 C         140.5153  145.4544  158.4289 C.ar    1  UNL1        0.1773
      5 C         140.8302  143.9888  158.4821 C.ar    1  UNL1        0.1402
      6 N         140.6381  143.2262  159.7595 N.ar    1  UNL1       -0.2089
      7 C         137.9766  141.8507  161.1802 C.3     1  UNL1        0.0233
      8 C         138.8617  142.1274  162.3593 C.3     1  UNL1        0.0955
      9 C         138.6695  141.3649  163.6366 C.3     1  UNL1        0.1149
     10 N         139.5546  141.6416  164.8156 N.pl3   1  UNL1       -0.2586
     11 C         140.6317  142.6809  164.7174 C.3     1  UNL1        0.1167
     12 C         140.8238  143.4434  163.4400 C.3     1  UNL1        0.1151
     13 N         139.9388  143.1667  162.2610 N.pl3   1  UNL1       -0.2764
     14 C         139.3624  140.8790  166.0930 C.ar    1  UNL1        0.3185
     15 N         139.9634  141.2223  167.4238 N.ar    1  UNL1       -0.1701
     16 C         139.5080  140.1948  168.4171 C.ar    1  UNL1        0.2766
     17 N         138.6254  139.2163  167.7002 N.ar    1  UNL1       -0.0499
     18 O         138.5355  139.6393  166.2639 O.2     1  UNL1       -0.3164
     19 C         139.8712  140.1529  169.8718 C.3     1  UNL1        0.4557
     20 F         140.2345  140.1111  171.3266 F       1  UNL1       -0.1631
     21 F         138.5883  140.8516  170.2123 F       1  UNL1       -0.1631
     22 F         141.1542  139.4543  169.5313 F       1  UNL1       -0.1631
     23 O         140.7074  146.2170  157.1517 O.3     1  UNL1       -0.4674
     24 C         139.5296  146.5162  156.2723 C.3     1  UNL1        0.2344
     25 C         139.4805  147.7979  155.4947 C.ar    1  UNL1        0.0486
     26 C         140.1276  147.8809  154.1440 C.ar    1  UNL1        0.0013
     27 C         140.0785  149.1628  153.3664 C.ar    1  UNL1       -0.0034
     28 C         139.3824  150.3614  153.9395 C.ar    1  UNL1       -0.0057
     29 C         138.7353  150.2784  155.2902 C.ar    1  UNL1        0.0261
     30 C         138.7843  148.9967  156.0678 C.ar    1  UNL1        0.1393
     31 F         138.1372  148.9136  157.4185 F       1  UNL1       -0.2044
     32 C         139.3333  151.6432  153.1619 C.3     1  UNL1        0.1278
     33 S         139.0387  152.9356  153.8640 S.3     1  UNL1        0.0697
     34 C         138.7441  154.2280  154.5661 C.3     1  UNL1        0.1171
     35 N         137.6660  152.9510  153.2597 N.2     1  UNL1       -0.2504
     36 O         140.4115  152.9202  154.4684 O.2     1  UNL1       -0.2460
     37 H         137.2741  153.7992  152.9496 H       1  UNL1        0.1971
@<TRIPOS>BOND
     1     8     7    1
     2     8     9    1
     3     9    10    1
     4    10    14    1
     5    14    15   ar
     6    15    16   ar
     7    16    19    1
     8    19    20    1
     9    19    21    1
    10    19    22    1
    11    16    17   ar
    12    17    18   ar
    13    10    11    1
    14    11    12    1
    15    12    13    1
    16    13     1    1
    17     1     2   ar
    18     2     3   ar
    19     3     4   ar
    20     4    23    1
    21    23    24    1
    22    24    25    1
    23    25    26   ar
    24    26    27   ar
    25    27    28   ar
    26    28    32    1
    27    32    33    1
    28    33    34    1
    29    33    35    2
    30    33    36    2
    31    28    29   ar
    32    29    30   ar
    33    30    31    1
    34     4     5   ar
    35     5     6   ar
    36    13     8    1
    37     6     1   ar
    38    18    14   ar
    39    30    25   ar
    40    35    37    1
