@<TRIPOS>MOLECULE
*****
 43 47 0 0 0
SMALL
GASTEIGER

@<TRIPOS>ATOM
      1 C         144.1352  142.4076  161.3626 C.ar    1  UNL1        0.1364
      2 N         144.5738  142.5106  159.9319 N.ar    1  UNL1       -0.2089
      3 C         143.7415  143.2749  158.9454 C.ar    1  UNL1        0.2000
      4 N         142.4706  143.9363  159.3897 N.ar    1  UNL1       -0.2238
      5 C         142.0320  143.8333  160.8204 C.ar    1  UNL1        0.0888
      6 C         140.7611  144.4947  161.2647 C.ar    1  UNL1        0.0561
      7 C         140.3225  144.3917  162.6954 C.ar    1  UNL1        0.1401
      8 C         141.1548  143.6274  163.6819 C.ar    1  UNL1        0.0371
      9 C         142.4257  142.9660  163.2376 C.ar    1  UNL1        0.0074
     10 C         142.8643  143.0690  161.8068 C.ar    1  UNL1        0.0496
     11 N         144.9675  141.6432  162.3491 N.pl3   1  UNL1       -0.2819
     12 H         145.8953  141.9191  162.5286 H       1  UNL1        0.1551
     13 C         143.7548  138.8979  164.8104 C.ar    1  UNL1        0.0636
     14 C         144.4707  140.1869  164.5348 C.ar    1  UNL1        0.0507
     15 C         144.3860  140.4585  163.0620 C.ar    1  UNL1        0.1539
     16 N         143.6177  139.3373  162.4274 N.ar    1  UNL1       -0.1577
     17 N         143.2276  138.3728  163.5080 N.ar    1  UNL1       -0.2781
     18 H         142.7155  137.5412  163.3841 H       1  UNL1        0.1886
     19 C         143.5943  138.2481  166.1528 C.3     1  UNL1        0.1304
     20 O         143.2480  138.6924  168.6890 O.2     1  UNL1       -0.2744
     21 C         142.8925  138.9773  167.2599 C.2     1  UNL1        0.2322
     22 N         141.8352  139.9914  166.9379 N.am    1  UNL1       -0.2818
     23 H         141.6019  140.1784  165.9999 H       1  UNL1        0.1549
     24 C         141.1335  140.7206  168.0451 C.ar    1  UNL1        0.0804
     25 C         139.9224  140.1163  168.6916 C.ar    1  UNL1        0.0171
     26 C         139.2206  140.8455  169.7987 C.ar    1  UNL1        0.0037
     27 C         139.7299  142.1791  170.2594 C.ar    1  UNL1        0.0321
     28 C         140.9410  142.7835  169.6129 C.ar    1  UNL1        0.1686
     29 F         141.4504  144.1170  170.0734 F       1  UNL1       -0.2018
     30 C         141.6428  142.0543  168.5057 C.ar    1  UNL1        0.1807
     31 F         142.8539  142.6586  167.8592 F       1  UNL1       -0.2005
     32 O         139.0516  145.0531  163.1397 O.3     1  UNL1       -0.4754
     33 C         137.7631  144.2852  163.1294 C.3     1  UNL1        0.2068
     34 C         137.6755  142.9578  163.8225 C.3     1  UNL1        0.0646
     35 C         137.8897  141.6915  163.0476 C.3     1  UNL1        0.0760
     36 N         138.3819  140.4588  163.7464 N.3     1  UNL1       -0.2716
     37 C         138.0954  140.0777  165.1686 C.3     1  UNL1        0.0722
     38 C         138.7834  138.7741  165.4467 C.3     1  UNL1        0.0188
     39 C         139.4951  138.3496  164.1965 C.3     1  UNL1        0.0199
     40 C         139.2470  139.3907  163.1455 C.3     1  UNL1        0.0870
     41 C         139.7717  139.3679  161.7406 C.3     1  UNL1        0.1530
     42 O         141.0925  140.0040  161.4227 O.3     1  UNL1       -0.3806
     43 H         141.0304  140.9626  161.5572 H       1  UNL1        0.2105
@<TRIPOS>BOND
     1    20    21    2
     2    21    19    1
     3    19    13    1
     4    13    14   ar
     5    14    15   ar
     6    15    11    1
     7    11     1    1
     8     1     2   ar
     9     2     3   ar
    10     3     4   ar
    11     4     5   ar
    12     5     6   ar
    13     6     7   ar
    14     7    32    1
    15    32    33    1
    16    33    34    1
    17    34    35    1
    18    35    36    1
    19    36    37    1
    20    37    38    1
    21    38    39    1
    22    39    40    1
    23    40    41    1
    24    41    42    1
    25     7     8   ar
    26     8     9   ar
    27     9    10   ar
    28    15    16   ar
    29    16    17   ar
    30    21    22   am
    31    22    24    1
    32    24    25   ar
    33    25    26   ar
    34    26    27   ar
    35    27    28   ar
    36    28    29    1
    37    28    30   ar
    38    30    31    1
    39    17    13   ar
    40    30    24   ar
    41    10     1   ar
    42    10     5   ar
    43    40    36    1
    44    11    12    1
    45    42    43    1
    46    17    18    1
    47    22    23    1
@<TRIPOS>MOLECULE
*****
 43 47 0 0 0
SMALL
GASTEIGER

@<TRIPOS>ATOM
      1 C         138.7621  142.6557  161.4483 C.ar    1  UNL1        0.1364
      2 N         138.3402  142.8445  160.0213 N.ar    1  UNL1       -0.2089
      3 C         139.3422  143.2823  158.9946 C.ar    1  UNL1        0.2000
      4 N         140.7662  143.5314  159.3949 N.ar    1  UNL1       -0.2238
      5 C         141.1882  143.3426  160.8218 C.ar    1  UNL1        0.0888
      6 C         142.6122  143.5916  161.2221 C.ar    1  UNL1        0.0561
      7 C         143.0341  143.4028  162.6490 C.ar    1  UNL1        0.1401
      8 C         142.0321  142.9650  163.6758 C.ar    1  UNL1        0.0371
      9 C         140.6081  142.7160  163.2756 C.ar    1  UNL1        0.0074
     10 C         140.1861  142.9048  161.8485 C.ar    1  UNL1        0.0496
     11 N         137.7601  142.2179  162.4751 N.pl3   1  UNL1       -0.2819
     12 H         136.9338  142.7362  162.6090 H       1  UNL1        0.1551
     13 C         138.3465  139.5077  165.1911 C.ar    1  UNL1        0.0636
     14 C         138.0616  140.9264  164.7959 C.ar    1  UNL1        0.0507
     15 C         138.0169  140.9903  163.2979 C.ar    1  UNL1        0.1539
     16 N         138.2742  139.6111  162.7673 N.ar    1  UNL1       -0.1577
     17 N         138.4779  138.6948  163.9373 N.ar    1  UNL1       -0.2781
     18 H         138.6650  137.7293  163.8905 H       1  UNL1        0.1886
     19 C         138.4770  138.9924  166.5937 C.3     1  UNL1        0.1304
     20 O         138.8163  139.6741  169.0776 O.2     1  UNL1       -0.2744
     21 C         139.1867  139.8115  167.6306 C.2     1  UNL1        0.2322
     22 N         140.2668  140.7681  167.2206 N.am    1  UNL1       -0.2818
     23 H         140.5100  140.8584  166.2708 H       1  UNL1        0.1549
     24 C         140.9765  141.5873  168.2575 C.ar    1  UNL1        0.0804
     25 C         140.3295  142.8231  168.8090 C.ar    1  UNL1        0.0171
     26 C         141.0392  143.6423  169.8460 C.ar    1  UNL1        0.0037
     27 C         142.3960  143.2257  170.3315 C.ar    1  UNL1        0.0321
     28 C         143.0430  141.9898  169.7800 C.ar    1  UNL1        0.1686
     29 F         144.3997  141.5732  170.2654 F       1  UNL1       -0.2018
     30 C         142.3333  141.1707  168.7430 C.ar    1  UNL1        0.1807
     31 F         142.9803  139.9349  168.1916 F       1  UNL1       -0.2005
     32 O         144.4581  143.6519  163.0493 O.3     1  UNL1       -0.4754
     33 C         145.0638  142.8814  164.1848 C.3     1  UNL1        0.2068
     34 C         145.6145  141.5062  163.9487 C.3     1  UNL1        0.0646
     35 C         144.8956  140.5568  163.0367 C.3     1  UNL1        0.0760
     36 N         143.8159  139.6682  163.5793 N.3     1  UNL1       -0.2716
     37 C         143.1882  139.7720  164.9377 C.3     1  UNL1        0.0722
     38 C         142.1586  138.6877  165.0568 C.3     1  UNL1        0.0188
     39 C         142.1500  137.9136  163.7719 C.3     1  UNL1        0.0199
     40 C         143.1742  138.5196  162.8588 C.3     1  UNL1        0.0870
     41 C         143.4996  138.0580  161.4692 C.3     1  UNL1        0.1530
     42 O         142.7137  136.9427  160.8459 O.3     1  UNL1       -0.3806
     43 H         142.8780  136.1200  161.3328 H       1  UNL1        0.2105
@<TRIPOS>BOND
     1    20    21    2
     2    21    19    1
     3    19    13    1
     4    13    14   ar
     5    14    15   ar
     6    15    11    1
     7    11     1    1
     8     1     2   ar
     9     2     3   ar
    10     3     4   ar
    11     4     5   ar
    12     5     6   ar
    13     6     7   ar
    14     7    32    1
    15    32    33    1
    16    33    34    1
    17    34    35    1
    18    35    36    1
    19    36    37    1
    20    37    38    1
    21    38    39    1
    22    39    40    1
    23    40    41    1
    24    41    42    1
    25     7     8   ar
    26     8     9   ar
    27     9    10   ar
    28    15    16   ar
    29    16    17   ar
    30    21    22   am
    31    22    24    1
    32    24    25   ar
    33    25    26   ar
    34    26    27   ar
    35    27    28   ar
    36    28    29    1
    37    28    30   ar
    38    30    31    1
    39    17    13   ar
    40    30    24   ar
    41    10     1   ar
    42    10     5   ar
    43    40    36    1
    44    11    12    1
    45    42    43    1
    46    17    18    1
    47    22    23    1
@<TRIPOS>MOLECULE
*****
 43 47 0 0 0
SMALL
GASTEIGER

@<TRIPOS>ATOM
      1 C         139.0680  143.2200  161.7270 C.ar    1  UNL1        0.1364
      2 N         138.8901  143.6025  160.2875 N.ar    1  UNL1       -0.2089
      3 C         140.0406  144.1795  159.5172 C.ar    1  UNL1        0.2000
      4 N         141.3689  144.3741  160.1864 N.ar    1  UNL1       -0.2238
      5 C         141.5467  143.9916  161.6258 C.ar    1  UNL1        0.0888
      6 C         142.8750  144.1861  162.2950 C.ar    1  UNL1        0.0561
      7 C         143.0529  143.8037  163.7344 C.ar    1  UNL1        0.1401
      8 C         141.9024  143.2266  164.5048 C.ar    1  UNL1        0.0371
      9 C         140.5741  143.0321  163.8356 C.ar    1  UNL1        0.0074
     10 C         140.3963  143.4146  162.3961 C.ar    1  UNL1        0.0496
     11 N         137.9175  142.6429  162.4974 N.pl3   1  UNL1       -0.2819
     12 H         137.0747  143.1460  162.5741 H       1  UNL1        0.1551
     13 C         138.1933  139.5536  164.8310 C.ar    1  UNL1        0.0636
     14 C         138.0271  141.0303  164.6263 C.ar    1  UNL1        0.0507
     15 C         138.0511  141.2994  163.1508 C.ar    1  UNL1        0.1539
     16 N         138.2322  139.9891  162.4436 N.ar    1  UNL1       -0.1577
     17 N         138.3201  138.9101  163.4819 N.ar    1  UNL1       -0.2781
     18 H         138.4400  137.9484  163.3085 H       1  UNL1        0.1886
     19 C         138.2269  138.8450  166.1526 C.3     1  UNL1        0.1304
     20 O         138.3919  139.4598  168.6713 O.2     1  UNL1       -0.2744
     21 C         138.9962  139.4316  167.2988 C.2     1  UNL1        0.2322
     22 N         140.3699  139.9900  167.0725 N.am    1  UNL1       -0.2818
     23 H         140.7665  139.9715  166.1716 H       1  UNL1        0.1549
     24 C         141.1392  140.5767  168.2188 C.ar    1  UNL1        0.0804
     25 C         142.0577  139.7094  169.0276 C.ar    1  UNL1        0.0171
     26 C         142.8271  140.2961  170.1739 C.ar    1  UNL1        0.0037
     27 C         142.6779  141.7500  170.5113 C.ar    1  UNL1        0.0321
     28 C         141.7593  142.6173  169.7025 C.ar    1  UNL1        0.1686
     29 F         141.6101  144.0712  170.0399 F       1  UNL1       -0.2018
     30 C         140.9900  142.0307  168.5562 C.ar    1  UNL1        0.1807
     31 F         140.0714  142.8979  167.7474 F       1  UNL1       -0.2005
     32 O         144.3812  143.9982  164.4035 O.3     1  UNL1       -0.4754
     33 C         145.2573  142.8148  164.6897 C.3     1  UNL1        0.2068
     34 C         145.6426  141.8812  163.5807 C.3     1  UNL1        0.0646
     35 C         144.8801  140.6061  163.3749 C.3     1  UNL1        0.0760
     36 N         143.8037  140.5357  162.3325 N.3     1  UNL1       -0.2716
     37 C         143.9394  140.9452  160.8959 C.3     1  UNL1        0.0722
     38 C         142.6222  140.7062  160.2193 C.3     1  UNL1        0.0188
     39 C         141.6724  140.1489  161.2377 C.3     1  UNL1        0.0199
     40 C         142.4025  140.0435  162.5438 C.3     1  UNL1        0.0870
     41 C         141.8318  139.5353  163.8345 C.3     1  UNL1        0.1530
     42 O         141.3275  138.1258  163.9282 O.3     1  UNL1       -0.3806
     43 H         140.5517  138.0212  163.3554 H       1  UNL1        0.2105
@<TRIPOS>BOND
     1    20    21    2
     2    21    19    1
     3    19    13    1
     4    13    14   ar
     5    14    15   ar
     6    15    11    1
     7    11     1    1
     8     1     2   ar
     9     2     3   ar
    10     3     4   ar
    11     4     5   ar
    12     5     6   ar
    13     6     7   ar
    14     7    32    1
    15    32    33    1
    16    33    34    1
    17    34    35    1
    18    35    36    1
    19    36    37    1
    20    37    38    1
    21    38    39    1
    22    39    40    1
    23    40    41    1
    24    41    42    1
    25     7     8   ar
    26     8     9   ar
    27     9    10   ar
    28    15    16   ar
    29    16    17   ar
    30    21    22   am
    31    22    24    1
    32    24    25   ar
    33    25    26   ar
    34    26    27   ar
    35    27    28   ar
    36    28    29    1
    37    28    30   ar
    38    30    31    1
    39    17    13   ar
    40    30    24   ar
    41    10     1   ar
    42    10     5   ar
    43    40    36    1
    44    11    12    1
    45    42    43    1
    46    17    18    1
    47    22    23    1
@<TRIPOS>MOLECULE
*****
 43 47 0 0 0
SMALL
GASTEIGER

@<TRIPOS>ATOM
      1 C         143.6823  139.3790  162.8552 C.ar    1  UNL1        0.1364
      2 N         144.7180  139.5926  163.9191 N.ar    1  UNL1       -0.2089
      3 C         145.5405  140.8469  163.9238 C.ar    1  UNL1        0.2000
      4 N         145.3275  141.8876  162.8647 N.ar    1  UNL1       -0.2238
      5 C         144.2919  141.6739  161.8009 C.ar    1  UNL1        0.0888
      6 C         144.0788  142.7146  160.7418 C.ar    1  UNL1        0.0561
      7 C         143.0432  142.5009  159.6780 C.ar    1  UNL1        0.1401
      8 C         142.2206  141.2466  159.6732 C.ar    1  UNL1        0.0371
      9 C         142.4336  140.2059  160.7322 C.ar    1  UNL1        0.0074
     10 C         143.4693  140.4196  161.7961 C.ar    1  UNL1        0.0496
     11 N         142.8597  138.1246  162.8504 N.pl3   1  UNL1       -0.2819
     12 H         143.2275  137.2962  162.4662 H       1  UNL1        0.1551
     13 C         139.5715  138.6316  164.8495 C.ar    1  UNL1        0.0636
     14 C         141.0248  138.9248  164.6218 C.ar    1  UNL1        0.0507
     15 C         141.4766  138.1326  163.4310 C.ar    1  UNL1        0.1539
     16 N         140.3025  137.3497  162.9226 N.ar    1  UNL1       -0.1577
     17 N         139.1251  137.6580  163.7993 N.ar    1  UNL1       -0.2781
     18 H         138.2184  137.2867  163.7024 H       1  UNL1        0.1886
     19 C         138.7150  139.2103  165.9365 C.3     1  UNL1        0.1304
     20 O         139.0564  139.5324  168.4917 O.2     1  UNL1       -0.2744
     21 C         139.3492  139.9454  167.0798 C.2     1  UNL1        0.2322
     22 N         140.2763  141.0936  166.8112 N.am    1  UNL1       -0.2818
     23 H         140.4685  141.3647  165.8845 H       1  UNL1        0.1549
     24 C         140.9106  141.8288  167.9545 C.ar    1  UNL1        0.0804
     25 C         140.1761  142.9528  168.6232 C.ar    1  UNL1        0.0171
     26 C         140.8104  143.6880  169.7665 C.ar    1  UNL1        0.0037
     27 C         142.1791  143.2992  170.2413 C.ar    1  UNL1        0.0321
     28 C         142.9136  142.1751  169.5726 C.ar    1  UNL1        0.1686
     29 F         144.2823  141.7862  170.0473 F       1  UNL1       -0.2018
     30 C         142.2794  141.4399  168.4293 C.ar    1  UNL1        0.1807
     31 F         143.0138  140.3158  167.7606 F       1  UNL1       -0.2005
     32 O         142.8302  143.5416  158.6189 O.3     1  UNL1       -0.4754
     33 C         141.8176  144.6282  158.8281 C.3     1  UNL1        0.2068
     34 C         140.6862  144.4238  159.7915 C.3     1  UNL1        0.0646
     35 C         140.5261  145.3427  160.9662 C.3     1  UNL1        0.0760
     36 N         140.7319  144.8233  162.3583 N.3     1  UNL1       -0.2716
     37 C         142.0544  144.6085  163.0327 C.3     1  UNL1        0.0722
     38 C         141.7912  144.0799  164.4116 C.3     1  UNL1        0.0188
     39 C         140.3060  143.9680  164.5894 C.3     1  UNL1        0.0199
     40 C         139.6512  144.4274  163.3204 C.3     1  UNL1        0.0870
     41 C         138.1752  144.4815  163.0593 C.3     1  UNL1        0.1530
     42 O         137.5814  143.6780  161.9404 O.3     1  UNL1       -0.3806
     43 H         137.9087  144.0146  161.0916 H       1  UNL1        0.2105
@<TRIPOS>BOND
     1    20    21    2
     2    21    19    1
     3    19    13    1
     4    13    14   ar
     5    14    15   ar
     6    15    11    1
     7    11     1    1
     8     1     2   ar
     9     2     3   ar
    10     3     4   ar
    11     4     5   ar
    12     5     6   ar
    13     6     7   ar
    14     7    32    1
    15    32    33    1
    16    33    34    1
    17    34    35    1
    18    35    36    1
    19    36    37    1
    20    37    38    1
    21    38    39    1
    22    39    40    1
    23    40    41    1
    24    41    42    1
    25     7     8   ar
    26     8     9   ar
    27     9    10   ar
    28    15    16   ar
    29    16    17   ar
    30    21    22   am
    31    22    24    1
    32    24    25   ar
    33    25    26   ar
    34    26    27   ar
    35    27    28   ar
    36    28    29    1
    37    28    30   ar
    38    30    31    1
    39    17    13   ar
    40    30    24   ar
    41    10     1   ar
    42    10     5   ar
    43    40    36    1
    44    11    12    1
    45    42    43    1
    46    17    18    1
    47    22    23    1
@<TRIPOS>MOLECULE
*****
 43 47 0 0 0
SMALL
GASTEIGER

@<TRIPOS>ATOM
      1 C         140.7309  138.9655  160.4653 C.ar    1  UNL1        0.1364
      2 N         142.0202  138.3996  159.9480 N.ar    1  UNL1       -0.2089
      3 C         143.0271  139.3009  159.2971 C.ar    1  UNL1        0.2000
      4 N         142.7449  140.7680  159.1635 N.ar    1  UNL1       -0.2238
      5 C         141.4556  141.3339  159.6808 C.ar    1  UNL1        0.0888
      6 C         141.1734  142.8010  159.5473 C.ar    1  UNL1        0.0561
      7 C         139.8842  143.3669  160.0646 C.ar    1  UNL1        0.1401
      8 C         138.8771  142.4656  160.7155 C.ar    1  UNL1        0.0371
      9 C         139.1594  140.9985  160.8491 C.ar    1  UNL1        0.0074
     10 C         140.4487  140.4326  160.3317 C.ar    1  UNL1        0.0496
     11 N         139.7239  138.0642  161.1162 N.pl3   1  UNL1       -0.2819
     12 H         139.1068  137.5340  160.5618 H       1  UNL1        0.1551
     13 C         138.9769  138.3058  164.9174 C.ar    1  UNL1        0.0636
     14 C         138.6837  138.6905  163.4976 C.ar    1  UNL1        0.0507
     15 C         139.6571  137.9708  162.6118 C.ar    1  UNL1        0.1539
     16 N         140.5519  137.1413  163.4843 N.ar    1  UNL1       -0.1577
     17 N         140.1315  137.3483  164.9092 N.ar    1  UNL1       -0.2781
     18 H         140.5415  136.9293  165.7002 H       1  UNL1        0.1886
     19 C         138.2442  138.7930  166.1322 C.3     1  UNL1        0.1304
     20 O         138.4153  139.3925  168.6543 O.2     1  UNL1       -0.2744
     21 C         139.0052  139.3966  167.2752 C.2     1  UNL1        0.2322
     22 N         140.3561  140.0043  167.0391 N.am    1  UNL1       -0.2818
     23 H         140.7432  140.0070  166.1339 H       1  UNL1        0.1549
     24 C         141.1171  140.6079  168.1821 C.ar    1  UNL1        0.0804
     25 C         142.0638  139.7632  168.9822 C.ar    1  UNL1        0.0171
     26 C         142.8248  140.3668  170.1252 C.ar    1  UNL1        0.0037
     27 C         142.6391  141.8152  170.4682 C.ar    1  UNL1        0.0321
     28 C         141.6923  142.6600  169.6682 C.ar    1  UNL1        0.1686
     29 F         141.5066  144.1084  170.0111 F       1  UNL1       -0.2018
     30 C         140.9313  142.0564  168.5251 C.ar    1  UNL1        0.1807
     31 F         139.9846  142.9012  167.7251 F       1  UNL1       -0.2005
     32 O         139.6019  144.8340  159.9310 O.3     1  UNL1       -0.4754
     33 C         140.2507  145.8108  160.8664 C.3     1  UNL1        0.2068
     34 C         140.2984  145.5220  162.3375 C.3     1  UNL1        0.0646
     35 C         141.5680  145.0258  162.9636 C.3     1  UNL1        0.0760
     36 N         141.7772  143.5550  163.1706 N.3     1  UNL1       -0.2716
     37 C         140.8216  142.6146  163.8432 C.3     1  UNL1        0.0722
     38 C         141.4325  141.2447  163.8297 C.3     1  UNL1        0.0188
     39 C         142.7658  141.3385  163.1487 C.3     1  UNL1        0.0199
     40 C         142.9789  142.7663  162.7414 C.3     1  UNL1        0.0870
     41 C         144.1821  143.3100  162.0298 C.3     1  UNL1        0.1530
     42 O         144.5766  142.7564  160.6927 O.3     1  UNL1       -0.3806
     43 H         144.8521  141.8318  160.7941 H       1  UNL1        0.2105
@<TRIPOS>BOND
     1    20    21    2
     2    21    19    1
     3    19    13    1
     4    13    14   ar
     5    14    15   ar
     6    15    11    1
     7    11     1    1
     8     1     2   ar
     9     2     3   ar
    10     3     4   ar
    11     4     5   ar
    12     5     6   ar
    13     6     7   ar
    14     7    32    1
    15    32    33    1
    16    33    34    1
    17    34    35    1
    18    35    36    1
    19    36    37    1
    20    37    38    1
    21    38    39    1
    22    39    40    1
    23    40    41    1
    24    41    42    1
    25     7     8   ar
    26     8     9   ar
    27     9    10   ar
    28    15    16   ar
    29    16    17   ar
    30    21    22   am
    31    22    24    1
    32    24    25   ar
    33    25    26   ar
    34    26    27   ar
    35    27    28   ar
    36    28    29    1
    37    28    30   ar
    38    30    31    1
    39    17    13   ar
    40    30    24   ar
    41    10     1   ar
    42    10     5   ar
    43    40    36    1
    44    11    12    1
    45    42    43    1
    46    17    18    1
    47    22    23    1
@<TRIPOS>MOLECULE
*****
 43 47 0 0 0
SMALL
GASTEIGER

@<TRIPOS>ATOM
      1 C         140.1413  139.2326  159.2044 C.ar    1  UNL1        0.1364
      2 N         139.0885  139.9803  158.4412 N.ar    1  UNL1       -0.2089
      3 C         137.7625  140.2696  159.0799 C.ar    1  UNL1        0.2000
      4 N         137.4893  139.8111  160.4818 N.ar    1  UNL1       -0.2238
      5 C         138.5421  139.0635  161.2450 C.ar    1  UNL1        0.0888
      6 C         138.2689  138.6051  162.6468 C.ar    1  UNL1        0.0561
      7 C         139.3217  137.8574  163.4100 C.ar    1  UNL1        0.1401
      8 C         140.6478  137.5681  162.7714 C.ar    1  UNL1        0.0371
      9 C         140.9210  138.0265  161.3695 C.ar    1  UNL1        0.0074
     10 C         139.8681  138.7742  160.6063 C.ar    1  UNL1        0.0496
     11 N         141.4674  138.9433  158.5658 N.pl3   1  UNL1       -0.2819
     12 H         142.2442  139.5150  158.7633 H       1  UNL1        0.1551
     13 C         142.5661  135.9750  156.3191 C.ar    1  UNL1        0.0636
     14 C         142.8858  137.0650  157.2987 C.ar    1  UNL1        0.0507
     15 C         141.6100  137.7828  157.6261 C.ar    1  UNL1        0.1539
     16 N         140.5019  137.1364  156.8487 N.ar    1  UNL1       -0.1577
     17 N         141.0928  136.0191  156.0409 N.ar    1  UNL1       -0.2781
     18 H         140.6001  135.4200  155.4347 H       1  UNL1        0.1886
     19 C         143.5475  135.0102  155.7223 C.3     1  UNL1        0.1304
     20 O         142.2221  132.9086  156.4814 O.2     1  UNL1       -0.2744
     21 C         143.5233  133.5671  156.1305 C.2     1  UNL1        0.2322
     22 N         144.8004  132.7823  156.1878 N.am    1  UNL1       -0.2818
     23 H         145.6544  133.2145  155.9575 H       1  UNL1        0.1549
     24 C         144.7762  131.3391  156.5959 C.ar    1  UNL1        0.0804
     25 C         144.8524  130.9688  158.0475 C.ar    1  UNL1        0.0171
     26 C         144.8282  129.5256  158.4557 C.ar    1  UNL1        0.0037
     27 C         144.7278  128.4527  157.4123 C.ar    1  UNL1        0.0321
     28 C         144.6515  128.8229  155.9606 C.ar    1  UNL1        0.1686
     29 F         144.5511  127.7501  154.9172 F       1  UNL1       -0.2018
     30 C         144.6757  130.2661  155.5524 C.ar    1  UNL1        0.1807
     31 F         144.5995  130.6364  154.1009 F       1  UNL1       -0.2005
     32 O         139.0485  137.3990  164.8119 O.3     1  UNL1       -0.4754
     33 C         138.4706  138.3538  165.8140 C.3     1  UNL1        0.2068
     34 C         139.3311  139.4294  166.4079 C.3     1  UNL1        0.0646
     35 C         139.2085  140.8426  165.9204 C.3     1  UNL1        0.0760
     36 N         139.8068  141.2358  164.6023 N.3     1  UNL1       -0.2716
     37 C         141.2208  140.9887  164.1670 C.3     1  UNL1        0.0722
     38 C         141.3841  141.5454  162.7837 C.3     1  UNL1        0.0188
     39 C         140.0709  142.1365  162.3640 C.3     1  UNL1        0.0199
     40 C         139.0960  141.9453  163.4879 C.3     1  UNL1        0.0870
     41 C         137.6623  142.3860  163.4961 C.3     1  UNL1        0.1530
     42 O         136.5853  141.4433  163.0474 O.3     1  UNL1       -0.3806
     43 H         136.6923  141.2568  162.1016 H       1  UNL1        0.2105
@<TRIPOS>BOND
     1    20    21    2
     2    21    19    1
     3    19    13    1
     4    13    14   ar
     5    14    15   ar
     6    15    11    1
     7    11     1    1
     8     1     2   ar
     9     2     3   ar
    10     3     4   ar
    11     4     5   ar
    12     5     6   ar
    13     6     7   ar
    14     7    32    1
    15    32    33    1
    16    33    34    1
    17    34    35    1
    18    35    36    1
    19    36    37    1
    20    37    38    1
    21    38    39    1
    22    39    40    1
    23    40    41    1
    24    41    42    1
    25     7     8   ar
    26     8     9   ar
    27     9    10   ar
    28    15    16   ar
    29    16    17   ar
    30    21    22   am
    31    22    24    1
    32    24    25   ar
    33    25    26   ar
    34    26    27   ar
    35    27    28   ar
    36    28    29    1
    37    28    30   ar
    38    30    31    1
    39    17    13   ar
    40    30    24   ar
    41    10     1   ar
    42    10     5   ar
    43    40    36    1
    44    11    12    1
    45    42    43    1
    46    17    18    1
    47    22    23    1
@<TRIPOS>MOLECULE
*****
 43 47 0 0 0
SMALL
GASTEIGER

@<TRIPOS>ATOM
      1 C         140.2966  138.9357  161.1877 C.ar    1  UNL1        0.1364
      2 N         139.1094  138.0578  161.4516 N.ar    1  UNL1       -0.2089
      3 C         137.7361  138.6563  161.5274 C.ar    1  UNL1        0.2000
      4 N         137.5501  140.1328  161.3391 N.ar    1  UNL1       -0.2238
      5 C         138.7373  141.0107  161.0752 C.ar    1  UNL1        0.0888
      6 C         138.5513  142.4872  160.8869 C.ar    1  UNL1        0.0561
      7 C         139.7385  143.3651  160.6230 C.ar    1  UNL1        0.1401
      8 C         141.1119  142.7665  160.5472 C.ar    1  UNL1        0.0371
      9 C         141.2979  141.2900  160.7355 C.ar    1  UNL1        0.0074
     10 C         140.1106  140.4121  160.9994 C.ar    1  UNL1        0.0496
     11 N         141.6700  138.3371  161.1119 N.pl3   1  UNL1       -0.2819
     12 H         141.9514  137.8516  160.3030 H       1  UNL1        0.1551
     13 C         143.5096  138.5374  164.5239 C.ar    1  UNL1        0.0636
     14 C         142.2663  138.3054  163.7174 C.ar    1  UNL1        0.0507
     15 C         142.6145  138.4783  162.2687 C.ar    1  UNL1        0.1539
     16 N         144.0730  138.8172  162.1798 N.ar    1  UNL1       -0.1577
     17 N         144.6262  138.8537  163.5736 N.ar    1  UNL1       -0.2781
     18 H         145.5585  139.0507  163.8211 H       1  UNL1        0.1886
     19 C         143.6173  138.4657  166.0183 C.3     1  UNL1        0.1304
     20 O         141.2000  139.3180  166.4421 O.2     1  UNL1       -0.2744
     21 C         142.6305  139.1990  166.8774 C.2     1  UNL1        0.2322
     22 N         143.0741  139.8134  168.1719 N.am    1  UNL1       -0.2818
     23 H         144.0130  139.7353  168.4576 H       1  UNL1        0.1549
     24 C         142.0872  140.5469  169.0311 C.ar    1  UNL1        0.0804
     25 C         141.0707  139.7820  169.8259 C.ar    1  UNL1        0.0171
     26 C         140.0838  140.5154  170.6850 C.ar    1  UNL1        0.0037
     27 C         140.1134  142.0137  170.7494 C.ar    1  UNL1        0.0321
     28 C         141.1299  142.7787  169.9546 C.ar    1  UNL1        0.1686
     29 F         141.1595  144.2769  170.0190 F       1  UNL1       -0.2018
     30 C         142.1168  142.0453  169.0954 C.ar    1  UNL1        0.1807
     31 F         143.1333  142.8102  168.3007 F       1  UNL1       -0.2005
     32 O         139.5525  144.8415  160.4347 O.3     1  UNL1       -0.4754
     33 C         140.1378  145.8036  161.4256 C.3     1  UNL1        0.2068
     34 C         140.2059  145.4355  162.8781 C.3     1  UNL1        0.0646
     35 C         141.5158  145.4952  163.6064 C.3     1  UNL1        0.0760
     36 N         142.5110  144.3835  163.4521 N.3     1  UNL1       -0.2716
     37 C         143.8021  144.4552  162.6918 C.3     1  UNL1        0.0722
     38 C         144.4789  143.1210  162.8008 C.3     1  UNL1        0.0188
     39 C         143.6061  142.2247  163.6284 C.3     1  UNL1        0.0199
     40 C         142.3899  143.0050  164.0310 C.3     1  UNL1        0.0870
     41 C         141.2523  142.4961  164.8657 C.3     1  UNL1        0.1530
     42 O         139.9306  142.1903  164.2259 O.3     1  UNL1       -0.3806
     43 H         139.5341  143.0112  163.8945 H       1  UNL1        0.2105
@<TRIPOS>BOND
     1    20    21    2
     2    21    19    1
     3    19    13    1
     4    13    14   ar
     5    14    15   ar
     6    15    11    1
     7    11     1    1
     8     1     2   ar
     9     2     3   ar
    10     3     4   ar
    11     4     5   ar
    12     5     6   ar
    13     6     7   ar
    14     7    32    1
    15    32    33    1
    16    33    34    1
    17    34    35    1
    18    35    36    1
    19    36    37    1
    20    37    38    1
    21    38    39    1
    22    39    40    1
    23    40    41    1
    24    41    42    1
    25     7     8   ar
    26     8     9   ar
    27     9    10   ar
    28    15    16   ar
    29    16    17   ar
    30    21    22   am
    31    22    24    1
    32    24    25   ar
    33    25    26   ar
    34    26    27   ar
    35    27    28   ar
    36    28    29    1
    37    28    30   ar
    38    30    31    1
    39    17    13   ar
    40    30    24   ar
    41    10     1   ar
    42    10     5   ar
    43    40    36    1
    44    11    12    1
    45    42    43    1
    46    17    18    1
    47    22    23    1
@<TRIPOS>MOLECULE
*****
 43 47 0 0 0
SMALL
GASTEIGER

@<TRIPOS>ATOM
      1 C         140.7352  139.4677  159.6730 C.ar    1  UNL1        0.1364
      2 N         141.9265  139.0235  158.8771 N.ar    1  UNL1       -0.2089
      3 C         142.8661  140.0414  158.3020 C.ar    1  UNL1        0.2000
      4 N         142.6144  141.5036  158.5227 N.ar    1  UNL1       -0.2238
      5 C         141.4232  141.9478  159.3186 C.ar    1  UNL1        0.0888
      6 C         141.1715  143.4100  159.5393 C.ar    1  UNL1        0.0561
      7 C         139.9802  143.8542  160.3352 C.ar    1  UNL1        0.1401
      8 C         139.0405  142.8362  160.9104 C.ar    1  UNL1        0.0371
      9 C         139.2922  141.3741  160.6897 C.ar    1  UNL1        0.0074
     10 C         140.4835  140.9299  159.8937 C.ar    1  UNL1        0.0496
     11 N         139.7955  138.4497  160.2482 N.pl3   1  UNL1       -0.2819
     12 H         139.0977  138.0483  159.6815 H       1  UNL1        0.1551
     13 C         139.4547  137.7518  164.0511 C.ar    1  UNL1        0.0636
     14 C         138.9326  138.3445  162.7759 C.ar    1  UNL1        0.0507
     15 C         139.9191  138.0434  161.6868 C.ar    1  UNL1        0.1539
     16 N         141.0509  137.2646  162.2889 N.ar    1  UNL1       -0.1577
     17 N         140.7638  137.0844  163.7502 N.ar    1  UNL1       -0.2781
     18 H         141.3345  136.6111  164.3979 H       1  UNL1        0.1886
     19 C         138.7851  137.8154  165.3919 C.3     1  UNL1        0.1304
     20 O         138.3929  139.0951  167.6186 O.2     1  UNL1       -0.2744
     21 C         139.2359  138.8221  166.4083 C.2     1  UNL1        0.2322
     22 N         140.5298  139.5558  166.2145 N.am    1  UNL1       -0.2818
     23 H         141.0831  139.3767  165.4202 H       1  UNL1        0.1549
     24 C         140.9806  140.5626  167.2310 C.ar    1  UNL1        0.0804
     25 C         140.3112  141.9027  167.3074 C.ar    1  UNL1        0.0171
     26 C         140.7621  142.9095  168.3239 C.ar    1  UNL1        0.0037
     27 C         141.8823  142.5761  169.2640 C.ar    1  UNL1        0.0321
     28 C         142.5518  141.2359  169.1877 C.ar    1  UNL1        0.1686
     29 F         143.6720  140.9024  170.1277 F       1  UNL1       -0.2018
     30 C         142.1009  140.2291  168.1712 C.ar    1  UNL1        0.1807
     31 F         142.7704  138.8890  168.0948 F       1  UNL1       -0.2005
     32 O         139.7285  145.3164  160.5559 O.3     1  UNL1       -0.4754
     33 C         139.8612  145.9011  161.9309 C.3     1  UNL1        0.2068
     34 C         141.0695  145.5915  162.7641 C.3     1  UNL1        0.0646
     35 C         141.0517  144.4248  163.7066 C.3     1  UNL1        0.0760
     36 N         142.3386  143.7726  164.1172 N.3     1  UNL1       -0.2716
     37 C         143.5313  144.4677  164.7038 C.3     1  UNL1        0.0722
     38 C         144.5886  143.4355  164.9625 C.3     1  UNL1        0.0188
     39 C         144.0492  142.1025  164.5356 C.3     1  UNL1        0.0199
     40 C         142.6586  142.3108  164.0132 C.3     1  UNL1        0.0870
     41 C         141.7480  141.2446  163.4804 C.3     1  UNL1        0.1530
     42 O         142.1173  139.7986  163.6311 O.3     1  UNL1       -0.3806
     43 H         142.9112  139.6112  163.1061 H       1  UNL1        0.2105
@<TRIPOS>BOND
     1    20    21    2
     2    21    19    1
     3    19    13    1
     4    13    14   ar
     5    14    15   ar
     6    15    11    1
     7    11     1    1
     8     1     2   ar
     9     2     3   ar
    10     3     4   ar
    11     4     5   ar
    12     5     6   ar
    13     6     7   ar
    14     7    32    1
    15    32    33    1
    16    33    34    1
    17    34    35    1
    18    35    36    1
    19    36    37    1
    20    37    38    1
    21    38    39    1
    22    39    40    1
    23    40    41    1
    24    41    42    1
    25     7     8   ar
    26     8     9   ar
    27     9    10   ar
    28    15    16   ar
    29    16    17   ar
    30    21    22   am
    31    22    24    1
    32    24    25   ar
    33    25    26   ar
    34    26    27   ar
    35    27    28   ar
    36    28    29    1
    37    28    30   ar
    38    30    31    1
    39    17    13   ar
    40    30    24   ar
    41    10     1   ar
    42    10     5   ar
    43    40    36    1
    44    11    12    1
    45    42    43    1
    46    17    18    1
    47    22    23    1
@<TRIPOS>MOLECULE
*****
 43 47 0 0 0
SMALL
GASTEIGER

@<TRIPOS>ATOM
      1 C         137.8957  140.5607  164.0196 C.ar    1  UNL1        0.1364
      2 N         138.1526  139.6786  165.2053 N.ar    1  UNL1       -0.2089
      3 C         138.7000  138.2963  165.0071 C.ar    1  UNL1        0.2000
      4 N         138.9905  137.7959  163.6232 N.ar    1  UNL1       -0.2238
      5 C         138.7336  138.6779  162.4375 C.ar    1  UNL1        0.0888
      6 C         139.0241  138.1776  161.0535 C.ar    1  UNL1        0.0561
      7 C         138.7671  139.0596  159.8678 C.ar    1  UNL1        0.1401
      8 C         138.2197  140.4421  160.0660 C.ar    1  UNL1        0.0371
      9 C         137.9292  140.9424  161.4499 C.ar    1  UNL1        0.0074
     10 C         138.1862  140.0603  162.6357 C.ar    1  UNL1        0.0496
     11 N         137.3482  141.9431  164.2178 N.pl3   1  UNL1       -0.2819
     12 H         136.3795  142.0775  164.3304 H       1  UNL1        0.1551
     13 C         139.7403  144.9230  163.5362 C.ar    1  UNL1        0.0636
     14 C         138.8783  143.7966  163.0479 C.ar    1  UNL1        0.0507
     15 C         138.2769  143.1208  164.2444 C.ar    1  UNL1        0.1539
     16 N         138.7672  143.8295  165.4722 N.ar    1  UNL1       -0.1577
     17 N         139.6716  144.9432  165.0345 N.ar    1  UNL1       -0.2781
     18 H         140.1382  145.5764  165.6266 H       1  UNL1        0.1886
     19 C         140.5319  145.8638  162.6770 C.3     1  UNL1        0.1304
     20 O         139.1953  146.5372  160.5535 O.2     1  UNL1       -0.2744
     21 C         140.3630  145.8407  161.1868 C.2     1  UNL1        0.2322
     22 N         141.3619  145.1211  160.3299 N.am    1  UNL1       -0.2818
     23 H         142.1284  144.6639  160.7456 H       1  UNL1        0.1549
     24 C         141.1930  145.0980  158.8396 C.ar    1  UNL1        0.0804
     25 C         142.1127  145.9009  157.9681 C.ar    1  UNL1        0.0171
     26 C         141.9438  145.8778  156.4778 C.ar    1  UNL1        0.0037
     27 C         140.8553  145.0518  155.8590 C.ar    1  UNL1        0.0321
     28 C         139.9356  144.2489  156.7305 C.ar    1  UNL1        0.1686
     29 F         138.8472  143.4229  156.1118 F       1  UNL1       -0.2018
     30 C         140.1045  144.2719  158.2208 C.ar    1  UNL1        0.1807
     31 F         139.1849  143.4690  159.0923 F       1  UNL1       -0.2005
     32 O         139.0576  138.5593  158.4839 O.3     1  UNL1       -0.4754
     33 C         140.4765  138.4363  158.0133 C.3     1  UNL1        0.2068
     34 C         141.4911  139.4665  158.4125 C.3     1  UNL1        0.0646
     35 C         142.3634  139.2352  159.6107 C.3     1  UNL1        0.0760
     36 N         142.1360  140.0223  160.8671 N.3     1  UNL1       -0.2716
     37 C         141.7175  141.4608  160.9428 C.3     1  UNL1        0.0722
     38 C         141.6100  141.8368  162.3909 C.3     1  UNL1        0.0188
     39 C         141.9621  140.6307  163.2103 C.3     1  UNL1        0.0199
     40 C         142.2871  139.5092  162.2686 C.3     1  UNL1        0.0870
     41 C         142.6922  138.1190  162.6595 C.3     1  UNL1        0.1530
     42 O         141.7863  136.9615  162.3600 O.3     1  UNL1       -0.3806
     43 H         140.9718  137.0455  162.8800 H       1  UNL1        0.2105
@<TRIPOS>BOND
     1    20    21    2
     2    21    19    1
     3    19    13    1
     4    13    14   ar
     5    14    15   ar
     6    15    11    1
     7    11     1    1
     8     1     2   ar
     9     2     3   ar
    10     3     4   ar
    11     4     5   ar
    12     5     6   ar
    13     6     7   ar
    14     7    32    1
    15    32    33    1
    16    33    34    1
    17    34    35    1
    18    35    36    1
    19    36    37    1
    20    37    38    1
    21    38    39    1
    22    39    40    1
    23    40    41    1
    24    41    42    1
    25     7     8   ar
    26     8     9   ar
    27     9    10   ar
    28    15    16   ar
    29    16    17   ar
    30    21    22   am
    31    22    24    1
    32    24    25   ar
    33    25    26   ar
    34    26    27   ar
    35    27    28   ar
    36    28    29    1
    37    28    30   ar
    38    30    31    1
    39    17    13   ar
    40    30    24   ar
    41    10     1   ar
    42    10     5   ar
    43    40    36    1
    44    11    12    1
    45    42    43    1
    46    17    18    1
    47    22    23    1
