@<TRIPOS>MOLECULE
*****
 28 31 0 0 0
SMALL
GASTEIGER

@<TRIPOS>ATOM
      1 N         141.6362  142.3308  168.3144 N.3     1  UNL1       -0.2713
      2 C         141.3750  143.1718  169.5287 C.3     1  UNL1        0.0614
      3 C         142.6168  143.1693  170.3701 C.3     1  UNL1        0.0175
      4 C         143.6454  142.3268  169.6759 C.3     1  UNL1        0.0175
      5 C         143.0394  141.8085  168.4054 C.3     1  UNL1        0.0614
      6 C         142.1853  141.4413  167.2159 C.3     1  UNL1        0.0595
      7 C         140.8087  142.0354  167.2620 C.3     1  UNL1        0.1686
      8 C         140.4036  142.9006  168.4184 C.3     1  UNL1        0.0595
      9 C         140.6648  142.0596  167.2041 C.3     1  UNL1        0.0991
     10 C         140.3818  145.7652  162.4936 C.3     1  UNL1        0.0310
     11 C         140.4526  144.8388  163.6713 C.ar    1  UNL1       -0.0219
     12 C         141.6658  143.9816  163.8794 C.ar    1  UNL1       -0.0045
     13 C         141.7365  143.0553  165.0570 C.ar    1  UNL1       -0.0032
     14 C         140.5940  142.9860  166.0265 C.ar    1  UNL1       -0.0062
     15 C         139.3808  143.8431  165.8184 C.ar    1  UNL1       -0.0032
     16 C         139.3100  144.7695  164.6408 C.ar    1  UNL1       -0.0045
     17 O         139.8372  141.7642  166.1517 O.3     1  UNL1       -0.4791
     18 C         139.3922  140.3595  165.8709 C.ar    1  UNL1        0.1385
     19 C         138.6058  139.6022  166.8995 C.ar    1  UNL1        0.0369
     20 C         138.1608  138.1976  166.6187 C.ar    1  UNL1        0.0033
     21 C         138.5022  137.5502  165.3094 C.ar    1  UNL1        0.0047
     22 C         139.2885  138.3076  164.2808 C.ar    1  UNL1        0.0561
     23 C         139.7336  139.7123  164.5616 C.ar    1  UNL1        0.0414
     24 C         139.6299  137.6602  162.9714 C.2     1  UNL1        0.2428
     25 N         138.6515  137.7046  161.8352 N.am    1  UNL1       -0.3253
     26 O         140.9496  136.9685  162.7982 O.2     1  UNL1       -0.2704
     27 H         137.7854  138.1585  161.9489 H       1  UNL1        0.1453
     28 H         138.8756  137.2797  160.9759 H       1  UNL1        0.1453
@<TRIPOS>BOND
     1    10    11    1
     2    11    12   ar
     3    12    13   ar
     4    13    14   ar
     5    14     9    1
     6     9     1    1
     7     1     2    1
     8     2     3    1
     9     3     4    1
    10     5     4    1
    11     5     6    1
    12     6     7    1
    13     7    17    1
    14    17    18    1
    15    18    19   ar
    16    19    20   ar
    17    20    21   ar
    18    21    22   ar
    19    22    24    1
    20    24    25   am
    21    24    26    2
    22    22    23   ar
    23     7     8    1
    24    14    15   ar
    25    15    16   ar
    26    16    11   ar
    27     5     1    1
    28    23    18   ar
    29     8     2    1
    30    25    27    1
    31    25    28    1
@<TRIPOS>MOLECULE
*****
 28 31 0 0 0
SMALL
GASTEIGER

@<TRIPOS>ATOM
      1 N         140.0123  139.7252  164.4559 N.3     1  UNL1       -0.2713
      2 C         138.6790  139.0400  164.4023 C.3     1  UNL1        0.0614
      3 C         138.8502  137.7505  163.6555 C.3     1  UNL1        0.0175
      4 C         140.2893  137.6387  163.2475 C.3     1  UNL1        0.0175
      5 C         141.0075  138.8591  163.7422 C.3     1  UNL1        0.0614
      6 C         141.4591  140.1659  164.3484 C.3     1  UNL1        0.0595
      7 C         140.3566  140.9226  165.0280 C.3     1  UNL1        0.1686
      8 C         138.9665  140.3596  165.0550 C.3     1  UNL1        0.0595
      9 C         140.2998  141.0448  165.1086 C.3     1  UNL1        0.0991
     10 C         139.6377  146.1355  162.0029 C.3     1  UNL1        0.0310
     11 C         139.8032  144.8628  162.7793 C.ar    1  UNL1       -0.0219
     12 C         138.7117  144.3964  163.6963 C.ar    1  UNL1       -0.0045
     13 C         138.8772  143.1237  164.4727 C.ar    1  UNL1       -0.0032
     14 C         140.1343  142.3175  164.3322 C.ar    1  UNL1       -0.0062
     15 C         141.2258  142.7839  163.4152 C.ar    1  UNL1       -0.0032
     16 C         141.0603  144.0566  162.6387 C.ar    1  UNL1       -0.0045
     17 O         140.6442  142.2422  165.6808 O.3     1  UNL1       -0.4791
     18 C         141.3198  142.2854  167.0193 C.ar    1  UNL1        0.1385
     19 C         142.8165  142.3375  167.1026 C.ar    1  UNL1        0.0369
     20 C         143.4921  142.3808  168.4411 C.ar    1  UNL1        0.0033
     21 C         142.6710  142.3718  169.6963 C.ar    1  UNL1        0.0047
     22 C         141.1742  142.3197  169.6130 C.ar    1  UNL1        0.0561
     23 C         140.4986  142.2765  168.2745 C.ar    1  UNL1        0.0414
     24 C         140.3531  142.3107  170.8683 C.2     1  UNL1        0.2428
     25 N         139.3092  143.3650  171.0892 N.am    1  UNL1       -0.3253
     26 O         140.5758  141.2474  171.9027 O.2     1  UNL1       -0.2704
     27 H         139.1630  144.0629  170.4103 H       1  UNL1        0.1453
     28 H         138.7703  143.3592  171.9130 H       1  UNL1        0.1453
@<TRIPOS>BOND
     1    10    11    1
     2    11    12   ar
     3    12    13   ar
     4    13    14   ar
     5    14     9    1
     6     9     1    1
     7     1     2    1
     8     2     3    1
     9     3     4    1
    10     5     4    1
    11     5     6    1
    12     6     7    1
    13     7    17    1
    14    17    18    1
    15    18    19   ar
    16    19    20   ar
    17    20    21   ar
    18    21    22   ar
    19    22    24    1
    20    24    25   am
    21    24    26    2
    22    22    23   ar
    23     7     8    1
    24    14    15   ar
    25    15    16   ar
    26    16    11   ar
    27     5     1    1
    28    23    18   ar
    29     8     2    1
    30    25    27    1
    31    25    28    1
@<TRIPOS>MOLECULE
*****
 28 31 0 0 0
SMALL
GASTEIGER

@<TRIPOS>ATOM
      1 N         139.4872  139.4000  163.9356 N.3     1  UNL1       -0.2713
      2 C         139.3751  138.0056  163.3940 C.3     1  UNL1        0.0614
      3 C         138.3363  138.0107  162.3120 C.3     1  UNL1        0.0175
      4 C         137.8063  139.4082  162.1849 C.3     1  UNL1        0.0175
      5 C         138.5176  140.2668  163.1883 C.3     1  UNL1        0.0614
      6 C         139.3772  140.8748  164.2701 C.3     1  UNL1        0.0595
      7 C         140.2963  139.8889  164.9284 C.3     1  UNL1        0.1686
      8 C         140.2952  138.4543  164.4904 C.3     1  UNL1        0.0595
      9 C         140.4073  139.8487  165.0320 C.3     1  UNL1        0.0991
     10 C         145.9842  141.6347  163.7251 C.3     1  UNL1        0.0310
     11 C         144.5900  141.1882  164.0518 C.ar    1  UNL1       -0.0219
     12 C         143.4359  142.1250  163.8508 C.ar    1  UNL1       -0.0045
     13 C         142.0418  141.6785  164.1775 C.ar    1  UNL1       -0.0032
     14 C         141.8016  140.2952  164.7052 C.ar    1  UNL1       -0.0062
     15 C         142.9555  139.3583  164.9063 C.ar    1  UNL1       -0.0032
     16 C         144.3498  139.8047  164.5796 C.ar    1  UNL1       -0.0045
     17 O         141.2165  140.3377  166.0248 O.3     1  UNL1       -0.4791
     18 C         140.6567  140.7308  167.3598 C.ar    1  UNL1        0.1385
     19 C         139.6252  139.8679  168.0242 C.ar    1  UNL1        0.0369
     20 C         139.0655  140.2610  169.3591 C.ar    1  UNL1        0.0033
     21 C         139.5371  141.5171  170.0297 C.ar    1  UNL1        0.0047
     22 C         140.5686  142.3801  169.3653 C.ar    1  UNL1        0.0561
     23 C         141.1284  141.9869  168.0303 C.ar    1  UNL1        0.0414
     24 C         141.0402  143.6362  170.0359 C.2     1  UNL1        0.2428
     25 N         142.4513  143.7356  170.5349 N.am    1  UNL1       -0.3253
     26 O         140.1008  144.7930  170.2075 O.2     1  UNL1       -0.2704
     27 H         143.0679  142.9764  170.4223 H       1  UNL1        0.1453
     28 H         142.7609  144.5600  170.9750 H       1  UNL1        0.1453
@<TRIPOS>BOND
     1    10    11    1
     2    11    12   ar
     3    12    13   ar
     4    13    14   ar
     5    14     9    1
     6     9     1    1
     7     1     2    1
     8     2     3    1
     9     3     4    1
    10     5     4    1
    11     5     6    1
    12     6     7    1
    13     7    17    1
    14    17    18    1
    15    18    19   ar
    16    19    20   ar
    17    20    21   ar
    18    21    22   ar
    19    22    24    1
    20    24    25   am
    21    24    26    2
    22    22    23   ar
    23     7     8    1
    24    14    15   ar
    25    15    16   ar
    26    16    11   ar
    27     5     1    1
    28    23    18   ar
    29     8     2    1
    30    25    27    1
    31    25    28    1
@<TRIPOS>MOLECULE
*****
 28 31 0 0 0
SMALL
GASTEIGER

@<TRIPOS>ATOM
      1 N         142.8578  140.3411  164.2395 N.3     1  UNL1       -0.2713
      2 C         142.6850  139.2805  163.1930 C.3     1  UNL1        0.0614
      3 C         144.0435  138.7506  162.8413 C.3     1  UNL1        0.0175
      4 C         145.0559  139.4838  163.6705 C.3     1  UNL1        0.0175
      5 C         144.3231  140.4668  164.5346 C.3     1  UNL1        0.0614
      6 C         143.3390  141.3457  165.2683 C.3     1  UNL1        0.0595
      7 C         141.9125  141.1084  164.8698 C.3     1  UNL1        0.1686
      8 C         141.5855  140.0758  163.8321 C.3     1  UNL1        0.0595
      9 C         141.7583  141.1364  164.8787 C.3     1  UNL1        0.0991
     10 C         139.6952  146.0940  162.2016 C.3     1  UNL1        0.0310
     11 C         140.2110  144.8546  162.8709 C.ar    1  UNL1       -0.0219
     12 C         141.4151  144.9292  163.7623 C.ar    1  UNL1       -0.0045
     13 C         141.9308  143.6899  164.4315 C.ar    1  UNL1       -0.0032
     14 C         141.2425  142.3758  164.2094 C.ar    1  UNL1       -0.0062
     15 C         140.0385  142.3011  163.3180 C.ar    1  UNL1       -0.0032
     16 C         139.5226  143.5404  162.6487 C.ar    1  UNL1       -0.0045
     17 O         140.8130  141.9038  165.5090 O.3     1  UNL1       -0.4791
     18 C         140.2970  141.5166  166.8632 C.ar    1  UNL1        0.1385
     19 C         139.5834  140.2103  167.0486 C.ar    1  UNL1        0.0369
     20 C         139.0674  139.8231  168.4027 C.ar    1  UNL1        0.0033
     21 C         139.2650  140.7422  169.5716 C.ar    1  UNL1        0.0047
     22 C         139.9787  142.0485  169.3862 C.ar    1  UNL1        0.0561
     23 C         140.4947  142.4357  168.0320 C.ar    1  UNL1        0.0414
     24 C         140.1763  142.9675  170.5551 C.2     1  UNL1        0.2428
     25 N         140.1256  144.4536  170.3576 N.am    1  UNL1       -0.3253
     26 O         140.4247  142.4005  171.9214 O.2     1  UNL1       -0.2704
     27 H         139.9626  144.8258  169.4609 H       1  UNL1        0.1453
     28 H         140.2553  145.0568  171.1248 H       1  UNL1        0.1453
@<TRIPOS>BOND
     1    10    11    1
     2    11    12   ar
     3    12    13   ar
     4    13    14   ar
     5    14     9    1
     6     9     1    1
     7     1     2    1
     8     2     3    1
     9     3     4    1
    10     5     4    1
    11     5     6    1
    12     6     7    1
    13     7    17    1
    14    17    18    1
    15    18    19   ar
    16    19    20   ar
    17    20    21   ar
    18    21    22   ar
    19    22    24    1
    20    24    25   am
    21    24    26    2
    22    22    23   ar
    23     7     8    1
    24    14    15   ar
    25    15    16   ar
    26    16    11   ar
    27     5     1    1
    28    23    18   ar
    29     8     2    1
    30    25    27    1
    31    25    28    1
@<TRIPOS>MOLECULE
*****
 28 31 0 0 0
SMALL
GASTEIGER

@<TRIPOS>ATOM
      1 N         139.3573  142.8524  164.0574 N.3     1  UNL1       -0.2713
      2 C         138.6238  142.1884  162.9299 C.3     1  UNL1        0.0614
      3 C         137.8328  143.2392  162.2088 C.3     1  UNL1        0.0175
      4 C         138.0774  144.5527  162.8907 C.3     1  UNL1        0.0175
      5 C         139.0195  144.3137  164.0331 C.3     1  UNL1        0.0614
      6 C         139.9585  143.7853  165.0906 C.3     1  UNL1        0.0595
      7 C         140.2024  142.3086  164.9899 C.3     1  UNL1        0.1686
      8 C         139.5350  141.5102  163.9096 C.3     1  UNL1        0.0595
      9 C         140.2684  142.1742  165.0371 C.3     1  UNL1        0.0991
     10 C         146.1019  141.5557  163.7769 C.3     1  UNL1        0.0310
     11 C         144.6435  141.7103  164.0919 C.ar    1  UNL1       -0.0219
     12 C         144.1300  143.0041  164.6508 C.ar    1  UNL1       -0.0045
     13 C         142.6717  143.1588  164.9658 C.ar    1  UNL1       -0.0032
     14 C         141.7268  142.0196  164.7220 C.ar    1  UNL1       -0.0062
     15 C         142.2402  140.7258  164.1632 C.ar    1  UNL1       -0.0032
     16 C         143.6986  140.5710  163.8481 C.ar    1  UNL1       -0.0045
     17 O         141.1136  141.6305  165.9697 O.3     1  UNL1       -0.4791
     18 C         140.6015  141.2413  167.3249 C.ar    1  UNL1        0.1385
     19 C         139.5307  140.1985  167.4510 C.ar    1  UNL1        0.0369
     20 C         139.0187  139.8094  168.8060 C.ar    1  UNL1        0.0033
     21 C         139.5774  140.4631  170.0350 C.ar    1  UNL1        0.0047
     22 C         140.6482  141.5059  169.9089 C.ar    1  UNL1        0.0561
     23 C         141.1603  141.8950  168.5538 C.ar    1  UNL1        0.0414
     24 C         141.2070  142.1595  171.1380 C.2     1  UNL1        0.2428
     25 N         142.5911  142.7371  171.1169 N.am    1  UNL1       -0.3253
     26 O         140.3815  142.2356  172.3882 O.2     1  UNL1       -0.2704
     27 H         143.1329  142.6872  170.2964 H       1  UNL1        0.1453
     28 H         142.9579  143.1661  171.9236 H       1  UNL1        0.1453
@<TRIPOS>BOND
     1    10    11    1
     2    11    12   ar
     3    12    13   ar
     4    13    14   ar
     5    14     9    1
     6     9     1    1
     7     1     2    1
     8     2     3    1
     9     3     4    1
    10     5     4    1
    11     5     6    1
    12     6     7    1
    13     7    17    1
    14    17    18    1
    15    18    19   ar
    16    19    20   ar
    17    20    21   ar
    18    21    22   ar
    19    22    24    1
    20    24    25   am
    21    24    26    2
    22    22    23   ar
    23     7     8    1
    24    14    15   ar
    25    15    16   ar
    26    16    11   ar
    27     5     1    1
    28    23    18   ar
    29     8     2    1
    30    25    27    1
    31    25    28    1
@<TRIPOS>MOLECULE
*****
 28 31 0 0 0
SMALL
GASTEIGER

@<TRIPOS>ATOM
      1 N         143.4922  141.0114  164.5548 N.3     1  UNL1       -0.2713
      2 C         144.7170  140.2747  164.0998 C.3     1  UNL1        0.0614
      3 C         145.6752  141.2771  163.5279 C.3     1  UNL1        0.0175
      4 C         145.0425  142.6333  163.6295 C.3     1  UNL1        0.0175
      5 C         143.6933  142.4691  164.2641 C.3     1  UNL1        0.0614
      6 C         142.4082  142.0104  164.9100 C.3     1  UNL1        0.0595
      7 C         142.3496  140.5291  165.1392 C.3     1  UNL1        0.1686
      8 C         143.5040  139.6613  164.7341 C.3     1  UNL1        0.0595
      9 C         142.2791  140.3980  165.1891 C.3     1  UNL1        0.0991
     10 C         137.9581  138.0512  161.7510 C.3     1  UNL1        0.0310
     11 C         139.0384  138.6379  162.6106 C.ar    1  UNL1       -0.0219
     12 C         139.0694  140.1145  162.8726 C.ar    1  UNL1       -0.0045
     13 C         140.1496  140.7012  163.7321 C.ar    1  UNL1       -0.0032
     14 C         141.1989  139.8113  164.3296 C.ar    1  UNL1       -0.0062
     15 C         141.1679  138.3347  164.0676 C.ar    1  UNL1       -0.0032
     16 C         140.0877  137.7479  163.2081 C.ar    1  UNL1       -0.0045
     17 O         141.1365  139.9158  165.7736 O.3     1  UNL1       -0.4791
     18 C         140.9999  139.8965  167.2672 C.ar    1  UNL1        0.1385
     19 C         139.7563  140.4308  167.9136 C.ar    1  UNL1        0.0369
     20 C         139.6197  140.4115  169.4072 C.ar    1  UNL1        0.0033
     21 C         140.7268  139.8578  170.2545 C.ar    1  UNL1        0.0047
     22 C         141.9704  139.3235  169.6081 C.ar    1  UNL1        0.0561
     23 C         142.1070  139.3428  168.1144 C.ar    1  UNL1        0.0414
     24 C         143.0775  138.7699  170.4554 C.2     1  UNL1        0.2428
     25 N         143.8671  139.6816  171.3472 N.am    1  UNL1       -0.3253
     26 O         143.3950  137.3045  170.4108 O.2     1  UNL1       -0.2704
     27 H         143.6587  140.6433  171.3765 H       1  UNL1        0.1453
     28 H         144.5937  139.3182  171.9033 H       1  UNL1        0.1453
@<TRIPOS>BOND
     1    10    11    1
     2    11    12   ar
     3    12    13   ar
     4    13    14   ar
     5    14     9    1
     6     9     1    1
     7     1     2    1
     8     2     3    1
     9     3     4    1
    10     5     4    1
    11     5     6    1
    12     6     7    1
    13     7    17    1
    14    17    18    1
    15    18    19   ar
    16    19    20   ar
    17    20    21   ar
    18    21    22   ar
    19    22    24    1
    20    24    25   am
    21    24    26    2
    22    22    23   ar
    23     7     8    1
    24    14    15   ar
    25    15    16   ar
    26    16    11   ar
    27     5     1    1
    28    23    18   ar
    29     8     2    1
    30    25    27    1
    31    25    28    1
@<TRIPOS>MOLECULE
*****
 28 31 0 0 0
SMALL
GASTEIGER

@<TRIPOS>ATOM
      1 N         140.1123  141.4350  168.2995 N.3     1  UNL1       -0.2713
      2 C         139.6678  140.3518  169.2372 C.3     1  UNL1        0.0614
      3 C         139.7205  140.8970  170.6336 C.3     1  UNL1        0.0175
      4 C         140.1974  142.3172  170.5589 C.3     1  UNL1        0.0175
      5 C         140.4396  142.6497  169.1164 C.3     1  UNL1        0.0614
      6 C         140.5936  142.6997  167.6154 C.3     1  UNL1        0.0595
      7 C         140.2303  141.4139  166.9338 C.3     1  UNL1        0.1686
      8 C         139.7674  140.2399  167.7447 C.3     1  UNL1        0.0595
      9 C         140.2119  141.3231  166.8070 C.3     1  UNL1        0.0991
     10 C         145.2698  139.3155  164.2799 C.3     1  UNL1        0.0310
     11 C         144.0053  139.8174  164.9117 C.ar    1  UNL1       -0.0219
     12 C         142.8629  138.8760  165.1537 C.ar    1  UNL1       -0.0045
     13 C         141.5984  139.3779  165.7854 C.ar    1  UNL1       -0.0032
     14 C         141.4764  140.8212  166.1752 C.ar    1  UNL1       -0.0062
     15 C         142.6188  141.7626  165.9333 C.ar    1  UNL1       -0.0032
     16 C         143.8833  141.2608  165.3015 C.ar    1  UNL1       -0.0045
     17 O         140.3299  141.3020  165.4412 O.3     1  UNL1       -0.4791
     18 C         139.4883  142.1821  164.5653 C.ar    1  UNL1        0.1385
     19 C         138.0618  141.8148  164.2826 C.ar    1  UNL1        0.0369
     20 C         137.2202  142.6949  163.4068 C.ar    1  UNL1        0.0033
     21 C         137.8052  143.9423  162.8136 C.ar    1  UNL1        0.0047
     22 C         139.2318  144.3095  163.0964 C.ar    1  UNL1        0.0561
     23 C         140.0734  143.4294  163.9723 C.ar    1  UNL1        0.0414
     24 C         139.8168  145.5569  162.5032 C.2     1  UNL1        0.2428
     25 N         141.1331  146.0775  162.9995 N.am    1  UNL1       -0.3253
     26 O         139.0854  146.2838  161.4137 O.2     1  UNL1       -0.2704
     27 H         141.6131  145.6005  163.7145 H       1  UNL1        0.1453
     28 H         141.5171  146.8962  162.6102 H       1  UNL1        0.1453
@<TRIPOS>BOND
     1    10    11    1
     2    11    12   ar
     3    12    13   ar
     4    13    14   ar
     5    14     9    1
     6     9     1    1
     7     1     2    1
     8     2     3    1
     9     3     4    1
    10     5     4    1
    11     5     6    1
    12     6     7    1
    13     7    17    1
    14    17    18    1
    15    18    19   ar
    16    19    20   ar
    17    20    21   ar
    18    21    22   ar
    19    22    24    1
    20    24    25   am
    21    24    26    2
    22    22    23   ar
    23     7     8    1
    24    14    15   ar
    25    15    16   ar
    26    16    11   ar
    27     5     1    1
    28    23    18   ar
    29     8     2    1
    30    25    27    1
    31    25    28    1
@<TRIPOS>MOLECULE
*****
 28 31 0 0 0
SMALL
GASTEIGER

@<TRIPOS>ATOM
      1 N         143.6103  141.1919  164.3572 N.3     1  UNL1       -0.2713
      2 C         144.8952  140.6259  163.8294 C.3     1  UNL1        0.0614
      3 C         145.6759  141.7470  163.2100 C.3     1  UNL1        0.0175
      4 C         144.8733  143.0059  163.3549 C.3     1  UNL1        0.0175
      5 C         143.5968  142.6629  164.0639 C.3     1  UNL1        0.0614
      6 C         142.4238  142.0367  164.7788 C.3     1  UNL1        0.0595
      7 C         142.5780  140.5615  165.0025 C.3     1  UNL1        0.1686
      8 C         143.8137  139.8561  164.5278 C.3     1  UNL1        0.0595
      9 C         142.5288  140.4221  165.0556 C.3     1  UNL1        0.0991
     10 C         138.0172  138.0458  161.8935 C.3     1  UNL1        0.0310
     11 C         139.1451  138.6399  162.6840 C.ar    1  UNL1       -0.0219
     12 C         140.3579  137.8146  162.9971 C.ar    1  UNL1       -0.0045
     13 C         141.4857  138.4086  163.7876 C.ar    1  UNL1       -0.0032
     14 C         141.4009  139.8281  164.2650 C.ar    1  UNL1       -0.0062
     15 C         140.1882  140.6534  163.9521 C.ar    1  UNL1       -0.0032
     16 C         139.0603  140.0594  163.1615 C.ar    1  UNL1       -0.0045
     17 O         141.4964  139.7917  165.7010 O.3     1  UNL1       -0.4791
     18 C         141.4626  139.7376  167.1996 C.ar    1  UNL1        0.1385
     19 C         142.6419  139.2044  167.9577 C.ar    1  UNL1        0.0369
     20 C         142.6081  139.1503  169.4563 C.ar    1  UNL1        0.0033
     21 C         141.3948  139.6294  170.1968 C.ar    1  UNL1        0.0047
     22 C         140.2154  140.1626  169.4387 C.ar    1  UNL1        0.0561
     23 C         140.2493  140.2167  167.9401 C.ar    1  UNL1        0.0414
     24 C         139.0021  140.6417  170.1793 C.2     1  UNL1        0.2428
     25 N         137.8420  139.7160  170.3967 N.am    1  UNL1       -0.3253
     26 O         138.9490  142.0465  170.7026 O.2     1  UNL1       -0.2704
     27 H         137.8769  138.7940  170.0533 H       1  UNL1        0.1453
     28 H         137.0457  140.0304  170.8827 H       1  UNL1        0.1453
@<TRIPOS>BOND
     1    10    11    1
     2    11    12   ar
     3    12    13   ar
     4    13    14   ar
     5    14     9    1
     6     9     1    1
     7     1     2    1
     8     2     3    1
     9     3     4    1
    10     5     4    1
    11     5     6    1
    12     6     7    1
    13     7    17    1
    14    17    18    1
    15    18    19   ar
    16    19    20   ar
    17    20    21   ar
    18    21    22   ar
    19    22    24    1
    20    24    25   am
    21    24    26    2
    22    22    23   ar
    23     7     8    1
    24    14    15   ar
    25    15    16   ar
    26    16    11   ar
    27     5     1    1
    28    23    18   ar
    29     8     2    1
    30    25    27    1
    31    25    28    1
@<TRIPOS>MOLECULE
*****
 28 31 0 0 0
SMALL
GASTEIGER

@<TRIPOS>ATOM
      1 N         143.1488  141.3451  164.5499 N.3     1  UNL1       -0.2713
      2 C         144.3199  140.4133  164.6509 C.3     1  UNL1        0.0614
      3 C         145.4887  141.0621  163.9705 C.3     1  UNL1        0.0175
      4 C         145.0399  142.3950  163.4490 C.3     1  UNL1        0.0175
      5 C         143.5938  142.5699  163.8070 C.3     1  UNL1        0.0614
      6 C         142.1680  142.4727  164.2935 C.3     1  UNL1        0.0595
      7 C         141.8693  141.1937  165.0182 C.3     1  UNL1        0.1686
      8 C         142.9453  140.1640  165.1969 C.3     1  UNL1        0.0595
      9 C         141.7741  141.0959  165.0959 C.3     1  UNL1        0.0991
     10 C         137.6950  138.2286  161.7584 C.3     1  UNL1        0.0310
     11 C         138.7148  138.9455  162.5928 C.ar    1  UNL1       -0.0219
     12 C         138.7330  140.4449  162.6307 C.ar    1  UNL1       -0.0045
     13 C         139.7528  141.1616  163.4650 C.ar    1  UNL1       -0.0032
     14 C         140.7543  140.3790  164.2615 C.ar    1  UNL1       -0.0062
     15 C         140.7361  138.8797  164.2236 C.ar    1  UNL1       -0.0032
     16 C         139.7164  138.1628  163.3893 C.ar    1  UNL1       -0.0045
     17 O         140.4945  140.9445  165.5642 O.3     1  UNL1       -0.4791
     18 C         140.2330  141.0924  167.0338 C.ar    1  UNL1        0.1385
     19 C         139.4619  140.0361  167.7684 C.ar    1  UNL1        0.0369
     20 C         139.2005  140.1840  169.2379 C.ar    1  UNL1        0.0033
     21 C         139.7100  141.3882  169.9729 C.ar    1  UNL1        0.0047
     22 C         140.4811  142.4445  169.2383 C.ar    1  UNL1        0.0561
     23 C         140.7425  142.2966  167.7687 C.ar    1  UNL1        0.0414
     24 C         140.9906  143.6487  169.9734 C.2     1  UNL1        0.2428
     25 N         142.4065  143.6822  170.4674 N.am    1  UNL1       -0.3253
     26 O         140.0842  144.8194  170.2143 O.2     1  UNL1       -0.2704
     27 H         143.0014  142.9139  170.3093 H       1  UNL1        0.1453
     28 H         142.7409  144.4726  170.9499 H       1  UNL1        0.1453
@<TRIPOS>BOND
     1    10    11    1
     2    11    12   ar
     3    12    13   ar
     4    13    14   ar
     5    14     9    1
     6     9     1    1
     7     1     2    1
     8     2     3    1
     9     3     4    1
    10     5     4    1
    11     5     6    1
    12     6     7    1
    13     7    17    1
    14    17    18    1
    15    18    19   ar
    16    19    20   ar
    17    20    21   ar
    18    21    22   ar
    19    22    24    1
    20    24    25   am
    21    24    26    2
    22    22    23   ar
    23     7     8    1
    24    14    15   ar
    25    15    16   ar
    26    16    11   ar
    27     5     1    1
    28    23    18   ar
    29     8     2    1
    30    25    27    1
    31    25    28    1
