@<TRIPOS>MOLECULE
*****
 28 31 0 0 0
SMALL
GASTEIGER

@<TRIPOS>ATOM
      1 C         139.4815  141.5548  164.6573 C.ar    1  UNL1        0.0681
      2 C         140.1051  141.0257  163.3998 C.ar    1  UNL1        0.0208
      3 C         139.6467  141.5325  162.0646 C.ar    1  UNL1        0.0384
      4 C         138.5648  142.5685  161.9867 C.ar    1  UNL1        0.1386
      5 C         137.9412  143.0976  163.2442 C.ar    1  UNL1        0.0384
      6 C         138.3996  142.5908  164.5794 C.ar    1  UNL1        0.0208
      7 C         137.9298  139.4032  166.0582 C.3     1  UNL1        0.0723
      8 C         139.1641  139.9721  166.6930 C.ar    1  UNL1        0.1268
      9 N         139.6224  139.4652  168.0283 N.ar    1  UNL1       -0.2318
     10 C         140.8567  140.0341  168.6631 C.ar    1  UNL1        0.0880
     11 C         141.3150  139.5272  169.9984 C.ar    1  UNL1        0.0194
     12 C         142.5493  140.0961  170.6331 C.ar    1  UNL1        0.0024
     13 C         143.3251  141.1719  169.9327 C.ar    1  UNL1        0.0116
     14 C         142.8668  141.6788  168.5974 C.ar    1  UNL1        0.0637
     15 CL        143.6426  142.7547  167.8970 Cl      1  UNL1       -0.0820
     16 C         141.6326  141.1099  167.9627 C.ar    1  UNL1        0.0847
     17 C         141.1741  141.6168  166.6274 C.ar    1  UNL1        0.2678
     18 O         141.9500  142.6926  165.9269 O.2     1  UNL1       -0.2665
     19 N         139.9399  141.0479  165.9926 N.ar    1  UNL1       -0.2626
     20 O         138.1064  143.0754  160.6514 O.3     1  UNL1       -0.4754
     21 C         138.9099  142.7780  159.4202 C.3     1  UNL1        0.2068
     22 C         139.9263  143.7666  158.9309 C.3     1  UNL1        0.0646
     23 C         140.1842  145.0237  159.7076 C.3     1  UNL1        0.0759
     24 N         140.8899  144.9571  161.0295 N.3     1  UNL1       -0.2726
     25 C         140.4716  145.6570  162.2886 C.3     1  UNL1        0.0721
     26 C         141.4610  145.3114  163.3618 C.3     1  UNL1        0.0188
     27 C         142.4908  144.3978  162.7660 C.3     1  UNL1        0.0188
     28 C         142.1379  144.1789  161.3246 C.3     1  UNL1        0.0721
@<TRIPOS>BOND
     1     7     8    1
     2     8     9   ar
     3     9    10   ar
     4    10    11   ar
     5    11    12   ar
     6    12    13   ar
     7    13    14   ar
     8    14    15    1
     9    14    16   ar
    10    16    17   ar
    11    17    18    2
    12    17    19   ar
    13    19     1    1
    14     1     2   ar
    15     2     3   ar
    16     3     4   ar
    17     4    20    1
    18    20    21    1
    19    21    22    1
    20    22    23    1
    21    23    24    1
    22    24    25    1
    23    25    26    1
    24    26    27    1
    25    27    28    1
    26     4     5   ar
    27     5     6   ar
    28    19     8   ar
    29     6     1   ar
    30    16    10   ar
    31    28    24    1
@<TRIPOS>MOLECULE
*****
 28 31 0 0 0
SMALL
GASTEIGER

@<TRIPOS>ATOM
      1 C         139.6231  139.3249  164.9009 C.ar    1  UNL1        0.0681
      2 C         140.2205  138.0322  164.4297 C.ar    1  UNL1        0.0208
      3 C         140.0346  137.5946  163.0071 C.ar    1  UNL1        0.0384
      4 C         139.2512  138.4497  162.0557 C.ar    1  UNL1        0.1386
      5 C         138.6537  139.7423  162.5269 C.ar    1  UNL1        0.0384
      6 C         138.8397  140.1800  163.9495 C.ar    1  UNL1        0.0208
      7 C         137.6594  138.4705  167.0019 C.3     1  UNL1        0.0723
      8 C         138.8272  139.3353  167.3741 C.ar    1  UNL1        0.1268
      9 N         139.0131  139.7729  168.7967 N.ar    1  UNL1       -0.2318
     10 C         140.1809  140.6377  169.1689 C.ar    1  UNL1        0.0880
     11 C         140.3668  141.0752  170.5916 C.ar    1  UNL1        0.0194
     12 C         141.5346  141.9400  170.9637 C.ar    1  UNL1        0.0024
     13 C         142.5164  142.3672  169.9132 C.ar    1  UNL1        0.0116
     14 C         142.3305  141.9297  168.4906 C.ar    1  UNL1        0.0637
     15 CL        143.3123  142.3569  167.4401 Cl      1  UNL1       -0.0820
     16 C         141.1627  141.0649  168.1184 C.ar    1  UNL1        0.0847
     17 C         140.9768  140.6273  166.6957 C.ar    1  UNL1        0.2678
     18 O         141.9586  141.0545  165.6452 O.2     1  UNL1       -0.2665
     19 N         139.8090  139.7625  166.3236 N.ar    1  UNL1       -0.2626
     20 O         139.0652  138.0121  160.6330 O.3     1  UNL1       -0.4754
     21 C         140.0475  138.4386  159.5826 C.3     1  UNL1        0.2068
     22 C         141.2157  139.3026  159.9550 C.3     1  UNL1        0.0646
     23 C         142.5337  138.6744  160.2987 C.3     1  UNL1        0.0759
     24 N         143.3483  139.2151  161.4362 N.3     1  UNL1       -0.2726
     25 C         143.5653  138.5464  162.7614 C.3     1  UNL1        0.0721
     26 C         144.4401  139.4374  163.5926 C.3     1  UNL1        0.0188
     27 C         144.7638  140.6568  162.7812 C.3     1  UNL1        0.0188
     28 C         144.0890  140.5194  161.4485 C.3     1  UNL1        0.0721
@<TRIPOS>BOND
     1     7     8    1
     2     8     9   ar
     3     9    10   ar
     4    10    11   ar
     5    11    12   ar
     6    12    13   ar
     7    13    14   ar
     8    14    15    1
     9    14    16   ar
    10    16    17   ar
    11    17    18    2
    12    17    19   ar
    13    19     1    1
    14     1     2   ar
    15     2     3   ar
    16     3     4   ar
    17     4    20    1
    18    20    21    1
    19    21    22    1
    20    22    23    1
    21    23    24    1
    22    24    25    1
    23    25    26    1
    24    26    27    1
    25    27    28    1
    26     4     5   ar
    27     5     6   ar
    28    19     8   ar
    29     6     1   ar
    30    16    10   ar
    31    28    24    1
@<TRIPOS>MOLECULE
*****
 28 31 0 0 0
SMALL
GASTEIGER

@<TRIPOS>ATOM
      1 C         139.0129  139.7665  164.9610 C.ar    1  UNL1        0.0681
      2 C         138.3289  140.8742  164.2158 C.ar    1  UNL1        0.0208
      3 C         137.8149  140.6378  162.8266 C.ar    1  UNL1        0.0384
      4 C         137.9849  139.2939  162.1826 C.ar    1  UNL1        0.1386
      5 C         138.6689  138.1862  162.9277 C.ar    1  UNL1        0.0384
      6 C         139.1830  138.4226  164.3169 C.ar    1  UNL1        0.0208
      7 C         137.5438  138.6311  167.3173 C.3     1  UNL1        0.0723
      8 C         138.7924  139.4352  167.5284 C.ar    1  UNL1        0.1268
      9 N         139.3064  139.6715  168.9176 N.ar    1  UNL1       -0.2318
     10 C         140.5550  140.4756  169.1287 C.ar    1  UNL1        0.0880
     11 C         141.0689  140.7120  170.5179 C.ar    1  UNL1        0.0194
     12 C         142.3175  141.5160  170.7289 C.ar    1  UNL1        0.0024
     13 C         143.0520  142.0837  169.5508 C.ar    1  UNL1        0.0116
     14 C         142.5381  141.8474  168.1616 C.ar    1  UNL1        0.0637
     15 CL        143.2726  142.4151  166.9834 Cl      1  UNL1       -0.0820
     16 C         141.2895  141.0433  167.9505 C.ar    1  UNL1        0.0847
     17 C         140.7755  140.8070  166.5613 C.ar    1  UNL1        0.2678
     18 O         141.5101  141.3747  165.3831 O.2     1  UNL1       -0.2665
     19 N         139.5270  140.0029  166.3502 N.ar    1  UNL1       -0.2626
     20 O         137.4709  139.0575  160.7933 O.3     1  UNL1       -0.4754
     21 C         137.7894  140.0334  159.6996 C.3     1  UNL1        0.2068
     22 C         139.0825  139.9217  158.9479 C.3     1  UNL1        0.0646
     23 C         140.3354  140.5178  159.5180 C.3     1  UNL1        0.0759
     24 N         141.1003  139.7830  160.5787 N.3     1  UNL1       -0.2726
     25 C         141.5038  138.3389  160.5343 C.3     1  UNL1        0.0721
     26 C         142.2488  138.0267  161.7982 C.3     1  UNL1        0.0188
     27 C         142.3058  139.2778  162.6238 C.3     1  UNL1        0.0188
     28 C         141.5960  140.3633  161.8700 C.3     1  UNL1        0.0721
@<TRIPOS>BOND
     1     7     8    1
     2     8     9   ar
     3     9    10   ar
     4    10    11   ar
     5    11    12   ar
     6    12    13   ar
     7    13    14   ar
     8    14    15    1
     9    14    16   ar
    10    16    17   ar
    11    17    18    2
    12    17    19   ar
    13    19     1    1
    14     1     2   ar
    15     2     3   ar
    16     3     4   ar
    17     4    20    1
    18    20    21    1
    19    21    22    1
    20    22    23    1
    21    23    24    1
    22    24    25    1
    23    25    26    1
    24    26    27    1
    25    27    28    1
    26     4     5   ar
    27     5     6   ar
    28    19     8   ar
    29     6     1   ar
    30    16    10   ar
    31    28    24    1
@<TRIPOS>MOLECULE
*****
 28 31 0 0 0
SMALL
GASTEIGER

@<TRIPOS>ATOM
      1 C         139.1328  140.2620  164.7915 C.ar    1  UNL1        0.0681
      2 C         138.0291  141.2003  164.4024 C.ar    1  UNL1        0.0208
      3 C         137.4894  141.1842  163.0030 C.ar    1  UNL1        0.0384
      4 C         138.0534  140.2298  161.9927 C.ar    1  UNL1        0.1386
      5 C         139.1571  139.2914  162.3817 C.ar    1  UNL1        0.0384
      6 C         139.6968  139.3076  163.7812 C.ar    1  UNL1        0.0208
      7 C         137.7164  138.7524  166.9629 C.3     1  UNL1        0.0723
      8 C         138.9643  139.5234  167.2767 C.ar    1  UNL1        0.1268
      9 N         139.5039  139.5395  168.6761 N.ar    1  UNL1       -0.2318
     10 C         140.7518  140.3105  168.9900 C.ar    1  UNL1        0.0880
     11 C         141.2915  140.3266  170.3894 C.ar    1  UNL1        0.0194
     12 C         142.5393  141.0976  170.7032 C.ar    1  UNL1        0.0024
     13 C         143.2475  141.8523  169.6175 C.ar    1  UNL1        0.0116
     14 C         142.7079  141.8362  168.2180 C.ar    1  UNL1        0.0637
     15 CL        143.4161  142.5910  167.1323 Cl      1  UNL1       -0.0820
     16 C         141.4601  141.0653  167.9043 C.ar    1  UNL1        0.0847
     17 C         140.9204  141.0491  166.5048 C.ar    1  UNL1        0.2678
     18 O         141.6286  141.8039  165.4191 O.2     1  UNL1       -0.2665
     19 N         139.6725  140.2782  166.1910 N.ar    1  UNL1       -0.2626
     20 O         137.5137  140.2136  160.5932 O.3     1  UNL1       -0.4754
     21 C         138.2356  140.9480  159.5025 C.3     1  UNL1        0.2068
     22 C         138.5537  142.4050  159.6626 C.3     1  UNL1        0.0646
     23 C         139.9341  142.8314  160.0659 C.3     1  UNL1        0.0759
     24 N         140.1218  143.7699  161.2208 N.3     1  UNL1       -0.2726
     25 C         141.4146  144.4053  161.6396 C.3     1  UNL1        0.0721
     26 C         141.1415  145.2659  162.8374 C.3     1  UNL1        0.0188
     27 C         139.6800  145.1624  163.1590 C.3     1  UNL1        0.0188
     28 C         139.0498  144.2378  162.1599 C.3     1  UNL1        0.0721
@<TRIPOS>BOND
     1     7     8    1
     2     8     9   ar
     3     9    10   ar
     4    10    11   ar
     5    11    12   ar
     6    12    13   ar
     7    13    14   ar
     8    14    15    1
     9    14    16   ar
    10    16    17   ar
    11    17    18    2
    12    17    19   ar
    13    19     1    1
    14     1     2   ar
    15     2     3   ar
    16     3     4   ar
    17     4    20    1
    18    20    21    1
    19    21    22    1
    20    22    23    1
    21    23    24    1
    22    24    25    1
    23    25    26    1
    24    26    27    1
    25    27    28    1
    26     4     5   ar
    27     5     6   ar
    28    19     8   ar
    29     6     1   ar
    30    16    10   ar
    31    28    24    1
@<TRIPOS>MOLECULE
*****
 28 31 0 0 0
SMALL
GASTEIGER

@<TRIPOS>ATOM
      1 C         143.0040  139.4051  164.6957 C.ar    1  UNL1        0.0681
      2 C         142.1687  138.4305  163.9196 C.ar    1  UNL1        0.0208
      3 C         142.4964  138.1372  162.4856 C.ar    1  UNL1        0.0384
      4 C         143.6595  138.8186  161.8276 C.ar    1  UNL1        0.1386
      5 C         144.4948  139.7932  162.6037 C.ar    1  UNL1        0.0384
      6 C         144.1671  140.0865  164.0378 C.ar    1  UNL1        0.0208
      7 C         144.0807  137.6421  166.8712 C.3     1  UNL1        0.0723
      8 C         143.2146  138.8168  167.2176 C.ar    1  UNL1        0.1268
      9 N         142.8869  139.1100  168.6517 N.ar    1  UNL1       -0.2318
     10 C         142.0207  140.2847  168.9981 C.ar    1  UNL1        0.0880
     11 C         141.6930  140.5779  170.4321 C.ar    1  UNL1        0.0194
     12 C         140.8269  141.7526  170.7785 C.ar    1  UNL1        0.0024
     13 C         140.2886  142.6341  169.6908 C.ar    1  UNL1        0.0116
     14 C         140.6163  142.3409  168.2567 C.ar    1  UNL1        0.0637
     15 CL        140.0780  143.2224  167.1690 Cl      1  UNL1       -0.0820
     16 C         141.4824  141.1662  167.9104 C.ar    1  UNL1        0.0847
     17 C         141.8102  140.8730  166.4762 C.ar    1  UNL1        0.2678
     18 O         141.2719  141.7545  165.3885 O.2     1  UNL1       -0.2665
     19 N         142.6763  139.6983  166.1299 N.ar    1  UNL1       -0.2626
     20 O         143.9873  138.5254  160.3935 O.3     1  UNL1       -0.4754
     21 C         143.6577  139.5290  159.3285 C.3     1  UNL1        0.2068
     22 C         142.3435  140.2513  159.3596 C.3     1  UNL1        0.0646
     23 C         142.3123  141.7476  159.4608 C.3     1  UNL1        0.0759
     24 N         142.8755  142.4293  160.6724 N.3     1  UNL1       -0.2726
     25 C         144.2712  142.9598  160.8168 C.3     1  UNL1        0.0721
     26 C         144.4002  143.5586  162.1861 C.3     1  UNL1        0.0188
     27 C         143.0842  143.3982  162.8880 C.3     1  UNL1        0.0188
     28 C         142.1419  142.7002  161.9525 C.3     1  UNL1        0.0721
@<TRIPOS>BOND
     1     7     8    1
     2     8     9   ar
     3     9    10   ar
     4    10    11   ar
     5    11    12   ar
     6    12    13   ar
     7    13    14   ar
     8    14    15    1
     9    14    16   ar
    10    16    17   ar
    11    17    18    2
    12    17    19   ar
    13    19     1    1
    14     1     2   ar
    15     2     3   ar
    16     3     4   ar
    17     4    20    1
    18    20    21    1
    19    21    22    1
    20    22    23    1
    21    23    24    1
    22    24    25    1
    23    25    26    1
    24    26    27    1
    25    27    28    1
    26     4     5   ar
    27     5     6   ar
    28    19     8   ar
    29     6     1   ar
    30    16    10   ar
    31    28    24    1
@<TRIPOS>MOLECULE
*****
 28 31 0 0 0
SMALL
GASTEIGER

@<TRIPOS>ATOM
      1 C         139.5770  139.3020  164.8238 C.ar    1  UNL1        0.0681
      2 C         140.2470  138.0541  164.3300 C.ar    1  UNL1        0.0208
      3 C         140.0536  137.6105  162.9103 C.ar    1  UNL1        0.0384
      4 C         139.1901  138.4149  161.9843 C.ar    1  UNL1        0.1386
      5 C         138.5201  139.6628  162.4781 C.ar    1  UNL1        0.0384
      6 C         138.7135  140.1063  163.8978 C.ar    1  UNL1        0.0208
      7 C         137.6425  138.4300  166.9445 C.3     1  UNL1        0.0723
      8 C         138.8032  139.3095  167.3040 C.ar    1  UNL1        0.1268
      9 N         138.9966  139.7530  168.7238 N.ar    1  UNL1       -0.2318
     10 C         140.1573  140.6326  169.0833 C.ar    1  UNL1        0.0880
     11 C         140.3507  141.0761  170.5031 C.ar    1  UNL1        0.0194
     12 C         141.5114  141.9556  170.8626 C.ar    1  UNL1        0.0024
     13 C         142.4786  142.3917  169.8022 C.ar    1  UNL1        0.0116
     14 C         142.2852  141.9481  168.3824 C.ar    1  UNL1        0.0637
     15 CL        143.2525  142.3842  167.3221 Cl      1  UNL1       -0.0820
     16 C         141.1246  141.0686  168.0230 C.ar    1  UNL1        0.0847
     17 C         140.9311  140.6251  166.6031 C.ar    1  UNL1        0.2678
     18 O         141.8984  141.0611  165.5428 O.2     1  UNL1       -0.2665
     19 N         139.7704  139.7456  166.2437 N.ar    1  UNL1       -0.2626
     20 O         138.9967  137.9713  160.5644 O.3     1  UNL1       -0.4754
     21 C         139.5138  138.8159  159.4378 C.3     1  UNL1        0.2068
     22 C         140.3417  138.1937  158.3528 C.3     1  UNL1        0.0646
     23 C         141.8335  138.3501  158.3645 C.3     1  UNL1        0.0759
     24 N         142.6619  137.7220  157.2833 N.3     1  UNL1       -0.2726
     25 C         143.4179  138.4539  156.2141 C.3     1  UNL1        0.0721
     26 C         144.1032  137.4360  155.3514 C.3     1  UNL1        0.0188
     27 C         143.7707  136.0749  155.8872 C.3     1  UNL1        0.0188
     28 C         142.8800  136.2517  157.0812 C.3     1  UNL1        0.0721
@<TRIPOS>BOND
     1     7     8    1
     2     8     9   ar
     3     9    10   ar
     4    10    11   ar
     5    11    12   ar
     6    12    13   ar
     7    13    14   ar
     8    14    15    1
     9    14    16   ar
    10    16    17   ar
    11    17    18    2
    12    17    19   ar
    13    19     1    1
    14     1     2   ar
    15     2     3   ar
    16     3     4   ar
    17     4    20    1
    18    20    21    1
    19    21    22    1
    20    22    23    1
    21    23    24    1
    22    24    25    1
    23    25    26    1
    24    26    27    1
    25    27    28    1
    26     4     5   ar
    27     5     6   ar
    28    19     8   ar
    29     6     1   ar
    30    16    10   ar
    31    28    24    1
@<TRIPOS>MOLECULE
*****
 28 31 0 0 0
SMALL
GASTEIGER

@<TRIPOS>ATOM
      1 C         142.3440  139.9334  164.7733 C.ar    1  UNL1        0.0681
      2 C         141.5812  138.7391  164.2817 C.ar    1  UNL1        0.0208
      3 C         142.0751  137.9716  163.0914 C.ar    1  UNL1        0.0384
      4 C         143.3320  138.3983  162.3927 C.ar    1  UNL1        0.1386
      5 C         144.0948  139.5926  162.8843 C.ar    1  UNL1        0.0384
      6 C         143.6009  140.3602  164.0746 C.ar    1  UNL1        0.0208
      7 C         140.8603  142.5118  164.3851 C.3     1  UNL1        0.0723
      8 C         141.1081  141.9902  165.7695 C.ar    1  UNL1        0.1268
      9 N         140.6141  142.7577  166.9598 N.ar    1  UNL1       -0.2318
     10 C         140.8620  142.2361  168.3442 C.ar    1  UNL1        0.0880
     11 C         140.3679  143.0037  169.5345 C.ar    1  UNL1        0.0194
     12 C         140.6158  142.4820  170.9188 C.ar    1  UNL1        0.0024
     13 C         141.3577  141.1929  171.1129 C.ar    1  UNL1        0.0116
     14 C         141.8517  140.4253  169.9227 C.ar    1  UNL1        0.0637
     15 CL        142.5935  139.1361  170.1167 Cl      1  UNL1       -0.0820
     16 C         141.6038  140.9469  168.5383 C.ar    1  UNL1        0.0847
     17 C         142.0979  140.1794  167.3480 C.ar    1  UNL1        0.2678
     18 O         142.8397  138.8902  167.5421 O.2     1  UNL1       -0.2665
     19 N         141.8500  140.7010  165.9636 N.ar    1  UNL1       -0.2626
     20 O         143.8260  137.6308  161.2024 O.3     1  UNL1       -0.4754
     21 C         143.1558  137.7985  159.8709 C.3     1  UNL1        0.2068
     22 C         142.1804  138.9180  159.6580 C.3     1  UNL1        0.0646
     23 C         140.7141  138.6234  159.5429 C.3     1  UNL1        0.0759
     24 N         139.7916  138.9522  160.6790 N.3     1  UNL1       -0.2726
     25 C         138.8191  138.0110  161.3260 C.3     1  UNL1        0.0721
     26 C         138.1061  138.7571  162.4145 C.3     1  UNL1        0.0188
     27 C         138.6378  140.1595  162.4404 C.3     1  UNL1        0.0188
     28 C         139.6795  140.2801  161.3678 C.3     1  UNL1        0.0721
@<TRIPOS>BOND
     1     7     8    1
     2     8     9   ar
     3     9    10   ar
     4    10    11   ar
     5    11    12   ar
     6    12    13   ar
     7    13    14   ar
     8    14    15    1
     9    14    16   ar
    10    16    17   ar
    11    17    18    2
    12    17    19   ar
    13    19     1    1
    14     1     2   ar
    15     2     3   ar
    16     3     4   ar
    17     4    20    1
    18    20    21    1
    19    21    22    1
    20    22    23    1
    21    23    24    1
    22    24    25    1
    23    25    26    1
    24    26    27    1
    25    27    28    1
    26     4     5   ar
    27     5     6   ar
    28    19     8   ar
    29     6     1   ar
    30    16    10   ar
    31    28    24    1
@<TRIPOS>MOLECULE
*****
 28 31 0 0 0
SMALL
GASTEIGER

@<TRIPOS>ATOM
      1 C         140.5690  141.2617  164.6347 C.ar    1  UNL1        0.0681
      2 C         139.8433  142.4309  164.0377 C.ar    1  UNL1        0.0208
      3 C         140.0128  142.7555  162.5831 C.ar    1  UNL1        0.0384
      4 C         140.9079  141.9109  161.7256 C.ar    1  UNL1        0.1386
      5 C         141.6335  140.7418  162.3226 C.ar    1  UNL1        0.0384
      6 C         141.4641  140.4171  163.7772 C.ar    1  UNL1        0.0208
      7 C         138.3008  139.5126  165.5269 C.3     1  UNL1        0.0723
      8 C         139.2654  140.0625  166.5355 C.ar    1  UNL1        0.1268
      9 N         139.0959  139.7379  167.9901 N.ar    1  UNL1       -0.2318
     10 C         140.0605  140.2879  168.9987 C.ar    1  UNL1        0.0880
     11 C         139.8910  139.9633  170.4532 C.ar    1  UNL1        0.0194
     12 C         140.8556  140.5133  171.4617 C.ar    1  UNL1        0.0024
     13 C         141.9896  141.3879  171.0156 C.ar    1  UNL1        0.0116
     14 C         142.1591  141.7125  169.5611 C.ar    1  UNL1        0.0637
     15 CL        143.2932  142.5871  169.1150 Cl      1  UNL1       -0.0820
     16 C         141.1946  141.1625  168.5526 C.ar    1  UNL1        0.0847
     17 C         141.3641  141.4871  167.0979 C.ar    1  UNL1        0.2678
     18 O         142.4981  142.3617  166.6518 O.2     1  UNL1       -0.2665
     19 N         140.3995  140.9371  166.0894 N.ar    1  UNL1       -0.2626
     20 O         141.0773  142.2355  160.2709 O.3     1  UNL1       -0.4754
     21 C         142.2901  142.9861  159.8063 C.3     1  UNL1        0.2068
     22 C         143.5733  142.2528  159.5499 C.3     1  UNL1        0.0646
     23 C         144.8055  142.6018  160.3308 C.3     1  UNL1        0.0759
     24 N         144.7418  142.7048  161.8259 N.3     1  UNL1       -0.2726
     25 C         145.3065  141.7162  162.8027 C.3     1  UNL1        0.0721
     26 C         145.0159  142.2148  164.1872 C.3     1  UNL1        0.0188
     27 C         144.2716  143.5116  164.0662 C.3     1  UNL1        0.0188
     28 C         144.1022  143.8144  162.6068 C.3     1  UNL1        0.0721
@<TRIPOS>BOND
     1     7     8    1
     2     8     9   ar
     3     9    10   ar
     4    10    11   ar
     5    11    12   ar
     6    12    13   ar
     7    13    14   ar
     8    14    15    1
     9    14    16   ar
    10    16    17   ar
    11    17    18    2
    12    17    19   ar
    13    19     1    1
    14     1     2   ar
    15     2     3   ar
    16     3     4   ar
    17     4    20    1
    18    20    21    1
    19    21    22    1
    20    22    23    1
    21    23    24    1
    22    24    25    1
    23    25    26    1
    24    26    27    1
    25    27    28    1
    26     4     5   ar
    27     5     6   ar
    28    19     8   ar
    29     6     1   ar
    30    16    10   ar
    31    28    24    1
@<TRIPOS>MOLECULE
*****
 28 31 0 0 0
SMALL
GASTEIGER

@<TRIPOS>ATOM
      1 C         142.5470  139.0804  164.4756 C.ar    1  UNL1        0.0681
      2 C         141.5203  138.1251  163.9434 C.ar    1  UNL1        0.0208
      3 C         141.6621  137.5668  162.5585 C.ar    1  UNL1        0.0384
      4 C         142.8305  137.9637  161.7058 C.ar    1  UNL1        0.1386
      5 C         143.8573  138.9189  162.2380 C.ar    1  UNL1        0.0384
      6 C         143.7155  139.4773  163.6229 C.ar    1  UNL1        0.0208
      7 C         143.8963  137.7228  166.7857 C.3     1  UNL1        0.0723
      8 C         143.0799  138.9600  167.0157 C.ar    1  UNL1        0.1268
      9 N         142.9381  139.5184  168.4006 N.ar    1  UNL1       -0.2318
     10 C         142.1216  140.7556  168.6306 C.ar    1  UNL1        0.0880
     11 C         141.9799  141.3139  170.0155 C.ar    1  UNL1        0.0194
     12 C         141.1635  142.5511  170.2454 C.ar    1  UNL1        0.0024
     13 C         140.4888  143.2299  169.0904 C.ar    1  UNL1        0.0116
     14 C         140.6306  142.6715  167.7055 C.ar    1  UNL1        0.0637
     15 CL        139.9560  143.3504  166.5504 Cl      1  UNL1       -0.0820
     16 C         141.4470  141.4344  167.4755 C.ar    1  UNL1        0.0847
     17 C         141.5888  140.8760  166.0905 C.ar    1  UNL1        0.2678
     18 O         140.9142  141.5548  164.9355 O.2     1  UNL1       -0.2665
     19 N         142.4052  139.6388  165.8606 N.ar    1  UNL1       -0.2626
     20 O         142.9724  137.4052  160.3208 O.3     1  UNL1       -0.4754
     21 C         142.3425  138.1138  159.1583 C.3     1  UNL1        0.2068
     22 C         141.6880  139.4485  159.3587 C.3     1  UNL1        0.0646
     23 C         140.1926  139.5623  159.3302 C.3     1  UNL1        0.0759
     24 N         139.4963  140.5281  160.2425 N.3     1  UNL1       -0.2726
     25 C         138.8353  141.8101  159.8305 C.3     1  UNL1        0.0721
     26 C         138.2693  142.4559  161.0604 C.3     1  UNL1        0.0188
     27 C         138.5805  141.5731  162.2325 C.3     1  UNL1        0.0188
     28 C         139.3389  140.3817  161.7270 C.3     1  UNL1        0.0721
@<TRIPOS>BOND
     1     7     8    1
     2     8     9   ar
     3     9    10   ar
     4    10    11   ar
     5    11    12   ar
     6    12    13   ar
     7    13    14   ar
     8    14    15    1
     9    14    16   ar
    10    16    17   ar
    11    17    18    2
    12    17    19   ar
    13    19     1    1
    14     1     2   ar
    15     2     3   ar
    16     3     4   ar
    17     4    20    1
    18    20    21    1
    19    21    22    1
    20    22    23    1
    21    23    24    1
    22    24    25    1
    23    25    26    1
    24    26    27    1
    25    27    28    1
    26     4     5   ar
    27     5     6   ar
    28    19     8   ar
    29     6     1   ar
    30    16    10   ar
    31    28    24    1
