@<TRIPOS>MOLECULE
*****
 30 32 0 0 0
SMALL
GASTEIGER

@<TRIPOS>ATOM
      1 C         141.7066  142.9134  161.6983 C.ar    1  UNL1        0.1556
      2 C         142.1962  142.9523  163.1157 C.ar    1  UNL1        0.0488
      3 C         141.1113  142.4065  163.9960 C.ar    1  UNL1        0.1330
      4 N         139.9511  142.0303  163.1229 N.ar    1  UNL1       -0.2441
      5 N         140.3190  142.3436  161.7028 N.ar    1  UNL1       -0.1643
      6 C         144.2195  142.8930  158.6267 C.3     1  UNL1        0.1110
      7 N         143.4557  142.4414  159.8361 N.am    1  UNL1       -0.2979
      8 C         142.4703  143.3650  160.4889 C.2     1  UNL1        0.2654
      9 O         142.2487  144.7401  159.9323 O.2     1  UNL1       -0.2684
     10 H         143.6011  141.5388  160.2015 H       1  UNL1        0.1498
     11 C         141.1753  142.2623  165.4878 C.2     1  UNL1        0.2633
     12 O         140.3471  143.1549  166.3638 O.2     1  UNL1       -0.2685
     13 N         142.0676  141.2256  166.1034 N.am    1  UNL1       -0.3013
     14 H         142.6112  140.6398  165.5284 H       1  UNL1        0.1497
     15 C         142.1317  141.0814  167.5951 C.3     1  UNL1        0.0721
     16 C         143.0304  141.9753  168.3971 C.3     1  UNL1        0.0221
     17 C         143.0944  141.8310  169.8888 C.3     1  UNL1        0.0309
     18 C         142.2597  140.7929  170.5784 C.3     1  UNL1        0.1106
     19 O         142.3238  140.6487  172.0702 O.3     1  UNL1       -0.3845
     20 C         141.3610  139.8991  169.7764 C.3     1  UNL1        0.0309
     21 C         141.2970  140.0433  168.2848 C.3     1  UNL1        0.0221
     22 H         142.9478  141.2977  172.4312 H       1  UNL1        0.2103
     23 C         138.6513  141.4439  163.5882 C.3     1  UNL1        0.1276
     24 C         137.3724  142.2019  163.3889 C.3     1  UNL1        0.0312
     25 C         138.6303  140.0993  164.2528 C.ar    1  UNL1       -0.0001
     26 C         139.0555  138.8793  163.4906 C.ar    1  UNL1       -0.0024
     27 C         139.0346  137.5347  164.1551 C.ar    1  UNL1       -0.0003
     28 C         138.5885  137.4100  165.5818 C.ar    1  UNL1       -0.0000
     29 C         138.1633  138.6300  166.3439 C.ar    1  UNL1       -0.0003
     30 C         138.1842  139.9746  165.6794 C.ar    1  UNL1       -0.0024
@<TRIPOS>BOND
     1     6     7    1
     2     7     8   am
     3     8     9    2
     4     8     1    1
     5     1     2   ar
     6     2     3   ar
     7     3    11    1
     8    11    12    2
     9    11    13   am
    10    15    13    1
    11    15    16    1
    12    16    17    1
    13    17    18    1
    14    18    19    1
    15    18    20    1
    16    20    21    1
    17     3     4   ar
    18     4    23    1
    19    23    24    1
    20    23    25    1
    21    25    26   ar
    22    26    27   ar
    23    27    28   ar
    24    28    29   ar
    25    29    30   ar
    26     4     5   ar
    27     5     1   ar
    28    21    15    1
    29    30    25   ar
    30     7    10    1
    31    13    14    1
    32    19    22    1
@<TRIPOS>MOLECULE
*****
 30 32 0 0 0
SMALL
GASTEIGER

@<TRIPOS>ATOM
      1 C         141.6921  142.9222  161.6784 C.ar    1  UNL1        0.1556
      2 C         142.1824  142.9668  163.0954 C.ar    1  UNL1        0.0488
      3 C         141.1019  142.4147  163.9772 C.ar    1  UNL1        0.1330
      4 N         139.9438  142.0289  163.1054 N.ar    1  UNL1       -0.2441
      5 N         140.3086  142.3426  161.6846 N.ar    1  UNL1       -0.1643
      6 C         144.1735  142.9009  158.5813 C.3     1  UNL1        0.1110
      7 N         143.4137  142.4457  159.7919 N.am    1  UNL1       -0.2979
      8 C         142.4519  143.3774  160.4678 C.2     1  UNL1        0.2654
      9 O         142.2500  144.7643  159.9333 O.2     1  UNL1       -0.2684
     10 H         143.5463  141.5354  160.1427 H       1  UNL1        0.1498
     11 C         141.1679  142.2732  165.4691 C.2     1  UNL1        0.2633
     12 O         140.3342  143.1614  166.3443 O.2     1  UNL1       -0.2685
     13 N         142.0675  141.2434  166.0858 N.am    1  UNL1       -0.3013
     14 H         142.6146  140.6604  165.5113 H       1  UNL1        0.1497
     15 C         142.1335  141.1019  167.5777 C.3     1  UNL1        0.0721
     16 C         141.3300  140.0390  168.2665 C.3     1  UNL1        0.0221
     17 C         141.3960  139.8975  169.7583 C.3     1  UNL1        0.0309
     18 C         142.2655  140.8190  170.5613 C.3     1  UNL1        0.1106
     19 O         142.3315  140.6775  172.0532 O.3     1  UNL1       -0.3845
     20 C         143.0690  141.8819  169.8725 C.3     1  UNL1        0.0309
     21 C         143.0030  142.0234  168.3807 C.3     1  UNL1        0.0221
     22 H         141.7568  139.9485  172.3346 H       1  UNL1        0.2103
     23 C         138.6485  141.4340  163.5723 C.3     1  UNL1        0.1276
     24 C         137.3633  142.1797  163.3667 C.3     1  UNL1        0.0312
     25 C         138.6383  140.0932  164.2449 C.ar    1  UNL1       -0.0001
     26 C         138.1784  139.9714  165.6675 C.ar    1  UNL1       -0.0024
     27 C         138.1681  138.6307  166.3402 C.ar    1  UNL1       -0.0003
     28 C         138.6177  137.4119  165.5903 C.ar    1  UNL1       -0.0000
     29 C         139.0776  137.5337  164.1678 C.ar    1  UNL1       -0.0003
     30 C         139.0879  138.8744  163.4951 C.ar    1  UNL1       -0.0024
@<TRIPOS>BOND
     1     6     7    1
     2     7     8   am
     3     8     9    2
     4     8     1    1
     5     1     2   ar
     6     2     3   ar
     7     3    11    1
     8    11    12    2
     9    11    13   am
    10    15    13    1
    11    15    16    1
    12    16    17    1
    13    17    18    1
    14    18    19    1
    15    18    20    1
    16    20    21    1
    17     3     4   ar
    18     4    23    1
    19    23    24    1
    20    23    25    1
    21    25    26   ar
    22    26    27   ar
    23    27    28   ar
    24    28    29   ar
    25    29    30   ar
    26     4     5   ar
    27     5     1   ar
    28    21    15    1
    29    30    25   ar
    30     7    10    1
    31    13    14    1
    32    19    22    1
@<TRIPOS>MOLECULE
*****
 30 32 0 0 0
SMALL
GASTEIGER

@<TRIPOS>ATOM
      1 C         142.6826  139.7321  161.8247 C.ar    1  UNL1        0.1556
      2 C         142.6925  139.5796  163.3170 C.ar    1  UNL1        0.0488
      3 C         142.2965  140.8947  163.9199 C.ar    1  UNL1        0.1330
      4 N         142.0418  141.8601  162.8005 N.ar    1  UNL1       -0.2441
      5 N         142.2804  141.1416  161.5055 N.ar    1  UNL1       -0.1643
      6 C         142.7115  137.6091  158.4718 C.3     1  UNL1        0.1110
      7 N         142.3778  138.6782  159.4696 N.am    1  UNL1       -0.2979
      8 C         143.0163  138.6630  160.8269 C.2     1  UNL1        0.2654
      9 O         143.9884  137.5787  161.1864 O.2     1  UNL1       -0.2684
     10 H         141.7398  139.3899  159.2337 H       1  UNL1        0.1498
     11 C         142.1763  141.1922  165.3853 C.2     1  UNL1        0.2633
     12 O         143.3754  141.6576  166.1569 O.2     1  UNL1       -0.2685
     13 N         140.8569  141.0244  166.0789 N.am    1  UNL1       -0.3013
     14 H         140.0699  140.7190  165.5724 H       1  UNL1        0.1497
     15 C         140.7367  141.3219  167.5442 C.3     1  UNL1        0.0721
     16 C         140.6016  142.7403  168.0129 C.3     1  UNL1        0.0221
     17 C         140.4814  143.0378  169.4781 C.3     1  UNL1        0.0309
     18 C         140.4962  141.9168  170.4747 C.3     1  UNL1        0.1106
     19 O         140.3760  142.2143  171.9400 O.3     1  UNL1       -0.3845
     20 C         140.6313  140.4983  170.0060 C.3     1  UNL1        0.0309
     21 C         140.7515  140.2009  168.5408 C.3     1  UNL1        0.0221
     22 H         140.2973  143.1723  172.0701 H       1  UNL1        0.2103
     23 C         141.6222  143.2924  162.9498 C.3     1  UNL1        0.1276
     24 C         142.5544  144.3937  162.5398 C.3     1  UNL1        0.0312
     25 C         140.2703  143.6235  163.5090 C.ar    1  UNL1       -0.0001
     26 C         140.1558  144.4640  164.7461 C.ar    1  UNL1       -0.0024
     27 C         138.8039  144.7951  165.3055 C.ar    1  UNL1       -0.0003
     28 C         137.5666  144.2857  164.6277 C.ar    1  UNL1       -0.0000
     29 C         137.6810  143.4452  163.3906 C.ar    1  UNL1       -0.0003
     30 C         139.0329  143.1141  162.8313 C.ar    1  UNL1       -0.0024
@<TRIPOS>BOND
     1     6     7    1
     2     7     8   am
     3     8     9    2
     4     8     1    1
     5     1     2   ar
     6     2     3   ar
     7     3    11    1
     8    11    12    2
     9    11    13   am
    10    15    13    1
    11    15    16    1
    12    16    17    1
    13    17    18    1
    14    18    19    1
    15    18    20    1
    16    20    21    1
    17     3     4   ar
    18     4    23    1
    19    23    24    1
    20    23    25    1
    21    25    26   ar
    22    26    27   ar
    23    27    28   ar
    24    28    29   ar
    25    29    30   ar
    26     4     5   ar
    27     5     1   ar
    28    21    15    1
    29    30    25   ar
    30     7    10    1
    31    13    14    1
    32    19    22    1
@<TRIPOS>MOLECULE
*****
 30 32 0 0 0
SMALL
GASTEIGER

@<TRIPOS>ATOM
      1 C         141.0858  144.0700  161.8271 C.ar    1  UNL1        0.1556
      2 C         140.8652  144.0973  163.3106 C.ar    1  UNL1        0.0488
      3 C         141.6074  142.9402  163.9108 C.ar    1  UNL1        0.1330
      4 N         142.2866  142.1978  162.7984 N.ar    1  UNL1       -0.2441
      5 N         141.9642  142.8960  161.5106 N.ar    1  UNL1       -0.1643
      6 C         140.3339  145.9093  158.3917 C.3     1  UNL1        0.1110
      7 N         140.8935  144.9339  159.3843 N.am    1  UNL1       -0.2979
      8 C         140.5262  145.0454  160.8344 C.2     1  UNL1        0.2654
      9 O         139.5992  146.1324  161.2918 O.2     1  UNL1       -0.2684
     10 H         141.5019  144.2204  159.0841 H       1  UNL1        0.1498
     11 C         141.6609  142.5874  165.3678 C.2     1  UNL1        0.2633
     12 O         142.9712  142.6107  166.0975 O.2     1  UNL1       -0.2685
     13 N         140.4040  142.2114  166.0951 N.am    1  UNL1       -0.3013
     14 H         139.5440  142.1961  165.6162 H       1  UNL1        0.1497
     15 C         140.4575  141.8586  167.5521 C.3     1  UNL1        0.0721
     16 C         140.4542  142.9442  168.5872 C.3     1  UNL1        0.0221
     17 C         140.5077  142.5914  170.0441 C.3     1  UNL1        0.0309
     18 C         140.5645  141.1531  170.4659 C.3     1  UNL1        0.1106
     19 O         140.6180  140.8004  171.9229 O.3     1  UNL1       -0.3845
     20 C         140.5679  140.0675  169.4308 C.3     1  UNL1        0.0309
     21 C         140.5144  140.4203  167.9739 C.3     1  UNL1        0.0221
     22 H         140.6084  141.6128  172.4528 H       1  UNL1        0.2103
     23 C         143.1385  140.9723  162.9477 C.3     1  UNL1        0.1276
     24 C         144.6130  141.0470  162.6827 C.3     1  UNL1        0.0312
     25 C         142.5159  139.6719  163.3619 C.ar    1  UNL1       -0.0001
     26 C         142.6994  139.1649  164.7616 C.ar    1  UNL1       -0.0024
     27 C         142.0769  137.8646  165.1760 C.ar    1  UNL1       -0.0003
     28 C         141.2709  137.0713  164.1905 C.ar    1  UNL1       -0.0000
     29 C         141.0874  137.5783  162.7908 C.ar    1  UNL1       -0.0003
     30 C         141.7100  138.8786  162.3765 C.ar    1  UNL1       -0.0024
@<TRIPOS>BOND
     1     6     7    1
     2     7     8   am
     3     8     9    2
     4     8     1    1
     5     1     2   ar
     6     2     3   ar
     7     3    11    1
     8    11    12    2
     9    11    13   am
    10    15    13    1
    11    15    16    1
    12    16    17    1
    13    17    18    1
    14    18    19    1
    15    18    20    1
    16    20    21    1
    17     3     4   ar
    18     4    23    1
    19    23    24    1
    20    23    25    1
    21    25    26   ar
    22    26    27   ar
    23    27    28   ar
    24    28    29   ar
    25    29    30   ar
    26     4     5   ar
    27     5     1   ar
    28    21    15    1
    29    30    25   ar
    30     7    10    1
    31    13    14    1
    32    19    22    1
@<TRIPOS>MOLECULE
*****
 30 32 0 0 0
SMALL
GASTEIGER

@<TRIPOS>ATOM
      1 C         143.7691  141.8303  159.8905 C.ar    1  UNL1        0.1556
      2 C         143.1169  140.7864  160.7480 C.ar    1  UNL1        0.0488
      3 C         142.5190  141.4731  161.9400 C.ar    1  UNL1        0.1330
      4 N         142.8015  142.9413  161.8193 N.ar    1  UNL1       -0.2441
      5 N         143.5741  143.1621  160.5527 N.ar    1  UNL1       -0.1643
      6 C         145.9785  142.4514  156.6528 C.3     1  UNL1        0.1110
      7 N         145.2579  142.6963  157.9454 N.am    1  UNL1       -0.2979
      8 C         144.4896  141.5854  158.5980 C.2     1  UNL1        0.2654
      9 O         144.4419  140.2297  157.9579 O.2     1  UNL1       -0.2684
     10 H         145.2892  143.5861  158.3655 H       1  UNL1        0.1498
     11 C         141.7699  140.8082  163.0567 C.2     1  UNL1        0.2633
     12 O         142.4167  140.6439  164.4001 O.2     1  UNL1       -0.2685
     13 N         140.3742  140.3077  162.8300 N.am    1  UNL1       -0.3013
     14 H         139.9498  140.4156  161.9483 H       1  UNL1        0.1497
     15 C         139.6252  139.6428  163.9467 C.3     1  UNL1        0.0721
     16 C         138.8730  140.4731  164.9440 C.3     1  UNL1        0.0221
     17 C         138.1240  139.8082  166.0606 C.3     1  UNL1        0.0309
     18 C         138.1273  138.3129  166.1799 C.3     1  UNL1        0.1106
     19 O         137.3783  137.6480  167.2966 O.3     1  UNL1       -0.3845
     20 C         138.8795  137.4826  165.1826 C.3     1  UNL1        0.0309
     21 C         139.6285  138.1475  164.0660 C.3     1  UNL1        0.0221
     22 H         136.9509  138.3233  167.8464 H       1  UNL1        0.2103
     23 C         142.3846  144.0024  162.7942 C.3     1  UNL1        0.1276
     24 C         143.3904  144.9939  163.2992 C.3     1  UNL1        0.0312
     25 C         140.9617  144.0719  163.2640 C.ar    1  UNL1       -0.0001
     26 C         139.8431  144.1093  162.2654 C.ar    1  UNL1       -0.0024
     27 C         138.4203  144.1788  162.7351 C.ar    1  UNL1       -0.0003
     28 C         138.1160  144.2109  164.2036 C.ar    1  UNL1       -0.0000
     29 C         139.2346  144.1735  165.2023 C.ar    1  UNL1       -0.0003
     30 C         140.6574  144.1040  164.7325 C.ar    1  UNL1       -0.0024
@<TRIPOS>BOND
     1     6     7    1
     2     7     8   am
     3     8     9    2
     4     8     1    1
     5     1     2   ar
     6     2     3   ar
     7     3    11    1
     8    11    12    2
     9    11    13   am
    10    15    13    1
    11    15    16    1
    12    16    17    1
    13    17    18    1
    14    18    19    1
    15    18    20    1
    16    20    21    1
    17     3     4   ar
    18     4    23    1
    19    23    24    1
    20    23    25    1
    21    25    26   ar
    22    26    27   ar
    23    27    28   ar
    24    28    29   ar
    25    29    30   ar
    26     4     5   ar
    27     5     1   ar
    28    21    15    1
    29    30    25   ar
    30     7    10    1
    31    13    14    1
    32    19    22    1
@<TRIPOS>MOLECULE
*****
 30 32 0 0 0
SMALL
GASTEIGER

@<TRIPOS>ATOM
      1 C         140.2577  143.6740  161.7268 C.ar    1  UNL1        0.1556
      2 C         139.9793  143.7321  163.1997 C.ar    1  UNL1        0.0488
      3 C         140.2634  142.3779  163.7788 C.ar    1  UNL1        0.1330
      4 N         140.7174  141.4829  162.6641 N.ar    1  UNL1       -0.2441
      5 N         140.7139  142.2838  161.3958 N.ar    1  UNL1       -0.1643
      6 C         140.3546  145.7568  158.3500 C.3     1  UNL1        0.1110
      7 N         140.5058  144.6237  159.3213 N.am    1  UNL1       -0.2979
      8 C         140.1065  144.8070  160.7555 C.2     1  UNL1        0.2654
      9 O         139.5561  146.1233  161.2185 O.2     1  UNL1       -0.2684
     10 H         140.8671  143.7598  159.0174 H       1  UNL1        0.1498
     11 C         140.1189  141.9874  165.2199 C.2     1  UNL1        0.2633
     12 O         138.8664  141.3099  165.6914 O.2     1  UNL1       -0.2685
     13 N         141.2268  142.2743  166.1895 N.am    1  UNL1       -0.3013
     14 H         142.0488  142.7190  165.8801 H       1  UNL1        0.1497
     15 C         141.0822  141.8838  167.6306 C.3     1  UNL1        0.0721
     16 C         141.5657  140.5424  168.0963 C.3     1  UNL1        0.0221
     17 C         141.4212  140.1520  169.5373 C.3     1  UNL1        0.0309
     18 C         140.7931  141.1029  170.5126 C.3     1  UNL1        0.1106
     19 O         140.6486  140.7123  171.9537 O.3     1  UNL1       -0.3845
     20 C         140.3096  142.4442  170.0470 C.3     1  UNL1        0.0309
     21 C         140.4542  142.8347  168.6060 C.3     1  UNL1        0.0221
     22 H         141.0087  139.8213  172.0849 H       1  UNL1        0.2103
     23 C         141.1066  140.0402  162.7946 C.3     1  UNL1        0.1276
     24 C         140.3327  138.9852  162.0611 C.3     1  UNL1        0.0312
     25 C         142.2697  139.6523  163.6588 C.ar    1  UNL1       -0.0001
     26 C         142.0646  138.7268  164.8213 C.ar    1  UNL1       -0.0024
     27 C         143.2276  138.3389  165.6855 C.ar    1  UNL1       -0.0003
     28 C         144.5958  138.8766  165.3873 C.ar    1  UNL1       -0.0000
     29 C         144.8009  139.8021  164.2249 C.ar    1  UNL1       -0.0003
     30 C         143.6379  140.1900  163.3607 C.ar    1  UNL1       -0.0024
@<TRIPOS>BOND
     1     6     7    1
     2     7     8   am
     3     8     9    2
     4     8     1    1
     5     1     2   ar
     6     2     3   ar
     7     3    11    1
     8    11    12    2
     9    11    13   am
    10    15    13    1
    11    15    16    1
    12    16    17    1
    13    17    18    1
    14    18    19    1
    15    18    20    1
    16    20    21    1
    17     3     4   ar
    18     4    23    1
    19    23    24    1
    20    23    25    1
    21    25    26   ar
    22    26    27   ar
    23    27    28   ar
    24    28    29   ar
    25    29    30   ar
    26     4     5   ar
    27     5     1   ar
    28    21    15    1
    29    30    25   ar
    30     7    10    1
    31    13    14    1
    32    19    22    1
@<TRIPOS>MOLECULE
*****
 30 32 0 0 0
SMALL
GASTEIGER

@<TRIPOS>ATOM
      1 C         140.6033  142.2216  168.3593 C.ar    1  UNL1        0.1556
      2 C         140.3156  142.9045  167.0551 C.ar    1  UNL1        0.0488
      3 C         139.6926  141.8989  166.1329 C.ar    1  UNL1        0.1330
      4 N         139.5952  140.5945  166.8671 N.ar    1  UNL1       -0.2441
      5 N         140.1580  140.7939  168.2431 N.ar    1  UNL1       -0.1643
      6 C         143.3435  143.5606  170.8987 C.3     1  UNL1        0.1110
      7 N         142.7200  142.9271  169.6904 N.am    1  UNL1       -0.2979
      8 C         141.2268  142.8551  169.5676 C.2     1  UNL1        0.2654
      9 O         140.3570  143.4166  170.6530 O.2     1  UNL1       -0.2684
     10 H         143.2909  142.5586  168.9780 H       1  UNL1        0.1498
     11 C         139.2454  142.1531  164.7238 C.2     1  UNL1        0.2633
     12 O         137.8893  142.7379  164.4612 O.2     1  UNL1       -0.2685
     13 N         140.1544  141.8224  163.5773 N.am    1  UNL1       -0.3013
     14 H         141.0444  141.4385  163.7496 H       1  UNL1        0.1497
     15 C         139.7072  142.0766  162.1682 C.3     1  UNL1        0.0721
     16 C         140.0963  143.3491  161.4759 C.3     1  UNL1        0.0221
     17 C         139.6492  143.6033  160.0668 C.3     1  UNL1        0.0309
     18 C         138.8130  142.5849  159.3501 C.3     1  UNL1        0.1106
     19 O         138.3658  142.8391  157.9410 O.3     1  UNL1       -0.3845
     20 C         138.4239  141.3124  160.0424 C.3     1  UNL1        0.0309
     21 C         138.8710  141.0583  161.4514 C.3     1  UNL1        0.0221
     22 H         138.7008  143.7003  157.6459 H       1  UNL1        0.2103
     23 C         139.0335  139.3153  166.3211 C.3     1  UNL1        0.1276
     24 C         137.8315  138.6892  166.9638 C.3     1  UNL1        0.0312
     25 C         139.6739  138.6621  165.1322 C.ar    1  UNL1       -0.0001
     26 C         141.1528  138.4119  165.1200 C.ar    1  UNL1       -0.0024
     27 C         141.7932  137.7588  163.9312 C.ar    1  UNL1       -0.0003
     28 C         140.9547  137.3558  162.7546 C.ar    1  UNL1       -0.0000
     29 C         139.4758  137.6059  162.7668 C.ar    1  UNL1       -0.0003
     30 C         138.8354  138.2591  163.9556 C.ar    1  UNL1       -0.0024
@<TRIPOS>BOND
     1     6     7    1
     2     7     8   am
     3     8     9    2
     4     8     1    1
     5     1     2   ar
     6     2     3   ar
     7     3    11    1
     8    11    12    2
     9    11    13   am
    10    15    13    1
    11    15    16    1
    12    16    17    1
    13    17    18    1
    14    18    19    1
    15    18    20    1
    16    20    21    1
    17     3     4   ar
    18     4    23    1
    19    23    24    1
    20    23    25    1
    21    25    26   ar
    22    26    27   ar
    23    27    28   ar
    24    28    29   ar
    25    29    30   ar
    26     4     5   ar
    27     5     1   ar
    28    21    15    1
    29    30    25   ar
    30     7    10    1
    31    13    14    1
    32    19    22    1
@<TRIPOS>MOLECULE
*****
 30 32 0 0 0
SMALL
GASTEIGER

@<TRIPOS>ATOM
      1 C         141.8745  140.5536  168.1914 C.ar    1  UNL1        0.1556
      2 C         142.5339  140.0006  166.9627 C.ar    1  UNL1        0.0488
      3 C         141.4574  139.5172  166.0367 C.ar    1  UNL1        0.1330
      4 N         140.1328  139.7715  166.6929 N.ar    1  UNL1       -0.2441
      5 N         140.3905  140.4120  168.0246 N.ar    1  UNL1       -0.1643
      6 C         143.2584  143.2190  170.7857 C.3     1  UNL1        0.1110
      7 N         142.5570  142.6281  169.5987 N.am    1  UNL1       -0.2979
      8 C         142.5759  141.1445  169.3783 C.2     1  UNL1        0.2654
      9 O         143.2962  140.2518  170.3449 O.2     1  UNL1       -0.2684
     10 H         142.0843  143.2140  168.9643 H       1  UNL1        0.1498
     11 C         141.6686  138.8897  164.6907 C.2     1  UNL1        0.2633
     12 O         141.4286  137.4211  164.5019 O.2     1  UNL1       -0.2685
     13 N         142.1197  139.7308  163.5335 N.am    1  UNL1       -0.3013
     14 H         142.2772  140.6947  163.6575 H       1  UNL1        0.1497
     15 C         142.3309  139.1033  162.1875 C.3     1  UNL1        0.0721
     16 C         143.4745  138.1567  161.9724 C.3     1  UNL1        0.0221
     17 C         143.6856  137.5293  160.6264 C.3     1  UNL1        0.0309
     18 C         142.7532  137.8484  159.4956 C.3     1  UNL1        0.1106
     19 O         142.9644  137.2209  158.1496 O.3     1  UNL1       -0.3845
     20 C         141.6097  138.7949  159.7107 C.3     1  UNL1        0.0309
     21 C         141.3985  139.4224  161.0567 C.3     1  UNL1        0.0221
     22 H         143.7407  136.6401  158.1818 H       1  UNL1        0.2103
     23 C         138.7867  139.4429  166.1183 C.3     1  UNL1        0.1276
     24 C         137.8364  138.5715  166.8848 C.3     1  UNL1        0.0312
     25 C         138.3909  139.9857  164.7771 C.ar    1  UNL1       -0.0001
     26 C         138.3354  139.0753  163.5863 C.ar    1  UNL1       -0.0024
     27 C         137.9396  139.6181  162.2451 C.ar    1  UNL1       -0.0003
     28 C         137.5994  141.0712  162.0947 C.ar    1  UNL1       -0.0000
     29 C         137.6549  141.9816  163.2856 C.ar    1  UNL1       -0.0003
     30 C         138.0507  141.4389  164.6268 C.ar    1  UNL1       -0.0024
@<TRIPOS>BOND
     1     6     7    1
     2     7     8   am
     3     8     9    2
     4     8     1    1
     5     1     2   ar
     6     2     3   ar
     7     3    11    1
     8    11    12    2
     9    11    13   am
    10    15    13    1
    11    15    16    1
    12    16    17    1
    13    17    18    1
    14    18    19    1
    15    18    20    1
    16    20    21    1
    17     3     4   ar
    18     4    23    1
    19    23    24    1
    20    23    25    1
    21    25    26   ar
    22    26    27   ar
    23    27    28   ar
    24    28    29   ar
    25    29    30   ar
    26     4     5   ar
    27     5     1   ar
    28    21    15    1
    29    30    25   ar
    30     7    10    1
    31    13    14    1
    32    19    22    1
@<TRIPOS>MOLECULE
*****
 30 32 0 0 0
SMALL
GASTEIGER

@<TRIPOS>ATOM
      1 C         142.8062  141.2863  160.5959 C.ar    1  UNL1        0.1556
      2 C         143.2077  141.8153  161.9409 C.ar    1  UNL1        0.0488
      3 C         141.9922  141.8171  162.8199 C.ar    1  UNL1        0.1330
      4 N         140.8396  141.2892  162.0183 N.ar    1  UNL1       -0.2441
      5 N         141.3425  140.9612  160.6438 N.ar    1  UNL1       -0.1643
      6 C         145.1699  142.1428  157.5252 C.3     1  UNL1        0.1110
      7 N         144.2665  142.3163  158.7100 N.am    1  UNL1       -0.2979
      8 C         143.7096  141.1128  159.4111 C.2     1  UNL1        0.2654
      9 O         144.0561  139.7359  158.9274 O.2     1  UNL1       -0.2684
     10 H         144.0390  143.2200  159.0275 H       1  UNL1        0.1498
     11 C         141.9389  142.2677  164.2497 C.2     1  UNL1        0.2633
     12 O         141.9062  143.7319  164.5739 O.2     1  UNL1       -0.2685
     13 N         141.9183  141.2541  165.3552 N.am    1  UNL1       -0.3013
     14 H         141.9398  140.2931  165.1425 H       1  UNL1        0.1497
     15 C         141.8650  141.7047  166.7850 C.3     1  UNL1        0.0721
     16 C         140.5404  141.8931  167.4631 C.3     1  UNL1        0.0221
     17 C         140.4871  142.3437  168.8928 C.3     1  UNL1        0.0309
     18 C         141.7585  142.6059  169.6444 C.3     1  UNL1        0.1106
     19 O         141.7052  143.0565  171.0742 O.3     1  UNL1       -0.3845
     20 C         143.0831  142.4175  168.9663 C.3     1  UNL1        0.0309
     21 C         143.1363  141.9670  167.5366 C.3     1  UNL1        0.0221
     22 H         140.7799  143.1276  171.3565 H       1  UNL1        0.2103
     23 C         139.4312  141.1193  162.5056 C.3     1  UNL1        0.1276
     24 C         138.3299  141.9546  161.9229 C.3     1  UNL1        0.0312
     25 C         139.1240  140.1141  163.5758 C.ar    1  UNL1       -0.0001
     26 C         138.3682  140.5318  164.8023 C.ar    1  UNL1       -0.0024
     27 C         138.0610  139.5267  165.8726 C.ar    1  UNL1       -0.0003
     28 C         138.5095  138.1039  165.7163 C.ar    1  UNL1       -0.0000
     29 C         139.2653  137.6862  164.4898 C.ar    1  UNL1       -0.0003
     30 C         139.5725  138.6913  163.4195 C.ar    1  UNL1       -0.0024
@<TRIPOS>BOND
     1     6     7    1
     2     7     8   am
     3     8     9    2
     4     8     1    1
     5     1     2   ar
     6     2     3   ar
     7     3    11    1
     8    11    12    2
     9    11    13   am
    10    15    13    1
    11    15    16    1
    12    16    17    1
    13    17    18    1
    14    18    19    1
    15    18    20    1
    16    20    21    1
    17     3     4   ar
    18     4    23    1
    19    23    24    1
    20    23    25    1
    21    25    26   ar
    22    26    27   ar
    23    27    28   ar
    24    28    29   ar
    25    29    30   ar
    26     4     5   ar
    27     5     1   ar
    28    21    15    1
    29    30    25   ar
    30     7    10    1
    31    13    14    1
    32    19    22    1
