@<TRIPOS>MOLECULE
*****
 25 27 0 0 0
SMALL
GASTEIGER

@<TRIPOS>ATOM
      1 C         137.8284  143.7405  162.6528 C.3     1  UNL1        0.0902
      2 N         138.8697  144.4800  163.4394 N.3     1  UNL1       -0.2639
      3 C         138.6494  144.7619  164.8961 C.3     1  UNL1        0.0992
      4 C         139.3932  143.9739  165.9334 C.2     1  UNL1       -0.0088
      5 C         139.6915  142.5223  165.7014 C.2     1  UNL1       -0.0032
      6 C         140.4353  141.7344  166.7387 C.ar    1  UNL1       -0.0003
      7 C         141.9170  141.9092  166.8935 C.ar    1  UNL1       -0.0002
      8 C         142.6608  141.1213  167.9308 C.ar    1  UNL1        0.0011
      9 C         141.9229  140.1586  168.8132 C.ar    1  UNL1        0.0436
     10 C         140.4412  139.9838  168.6583 C.ar    1  UNL1        0.0011
     11 C         139.6974  140.7716  167.6210 C.ar    1  UNL1       -0.0002
     12 C         142.6668  139.3706  169.8505 C.3     1  UNL1        0.3410
     13 F         143.1110  140.0340  171.1203 F       1  UNL1       -0.1933
     14 F         142.9662  137.9194  169.6179 F       1  UNL1       -0.1933
     15 C         140.1312  144.9376  162.7694 C.3     1  UNL1        0.0995
     16 C         141.4448  144.3138  163.1375 C.ar    1  UNL1       -0.0031
     17 C         142.4854  145.1237  163.8527 C.ar    1  UNL1       -0.0030
     18 C         143.7989  144.5000  164.2209 C.ar    1  UNL1       -0.0016
     19 C         144.0720  143.0664  163.8739 C.ar    1  UNL1        0.0119
     20 C         143.0314  142.2566  163.1587 C.ar    1  UNL1        0.1342
     21 C         141.7178  142.8803  162.7905 C.ar    1  UNL1        0.0337
     22 O         143.3044  140.8230  162.8117 O.3     1  UNL1       -0.4758
     23 C         144.6180  140.1994  163.1799 C.3     1  UNL1        0.2057
     24 C         145.6585  141.0092  163.8950 C.3     1  UNL1        0.0521
     25 C         145.3855  142.4427  164.2420 C.3     1  UNL1        0.0333
@<TRIPOS>BOND
     1     1     2    1
     2     2     3    1
     3     3     4    1
     4     4     5    2
     5     5     6    1
     6     6     7   ar
     7     7     8   ar
     8     8     9   ar
     9     9    12    1
    10    12    13    1
    11    12    14    1
    12     9    10   ar
    13    10    11   ar
    14     2    15    1
    15    15    16    1
    16    16    17   ar
    17    17    18   ar
    18    18    19   ar
    19    19    20   ar
    20    20    21   ar
    21    20    22    1
    22    22    23    1
    23    23    24    1
    24    24    25    1
    25    11     6   ar
    26    21    16   ar
    27    25    19    1
@<TRIPOS>MOLECULE
*****
 25 27 0 0 0
SMALL
GASTEIGER

@<TRIPOS>ATOM
      1 C         139.8111  138.0724  161.2999 C.3     1  UNL1        0.0902
      2 N         138.7797  138.4585  162.3183 N.3     1  UNL1       -0.2639
      3 C         138.7808  137.8088  163.6703 C.3     1  UNL1        0.0992
      4 C         138.8720  138.6519  164.9075 C.2     1  UNL1       -0.0088
      5 C         139.9497  139.6880  165.0312 C.2     1  UNL1       -0.0032
      6 C         140.0410  140.5312  166.2685 C.ar    1  UNL1       -0.0003
      7 C         139.7619  139.9246  167.6117 C.ar    1  UNL1       -0.0002
      8 C         139.8532  140.7677  168.8489 C.ar    1  UNL1        0.0011
      9 C         140.2234  142.2174  168.7430 C.ar    1  UNL1        0.0436
     10 C         140.5024  142.8239  167.3997 C.ar    1  UNL1        0.0011
     11 C         140.4112  141.9808  166.1625 C.ar    1  UNL1       -0.0002
     12 C         140.3147  143.0605  169.9802 C.3     1  UNL1        0.3410
     13 F         140.4427  144.5506  169.8646 F       1  UNL1       -0.1933
     14 F         140.2779  142.4137  171.3331 F       1  UNL1       -0.1933
     15 C         137.7473  139.4942  161.9847 C.3     1  UNL1        0.0995
     16 C         138.0518  140.9490  162.1868 C.ar    1  UNL1       -0.0031
     17 C         137.3975  141.7037  163.3060 C.ar    1  UNL1       -0.0030
     18 C         137.7020  143.1585  163.5082 C.ar    1  UNL1       -0.0016
     19 C         138.6607  143.8586  162.5912 C.ar    1  UNL1        0.0119
     20 C         139.3149  143.1040  161.4721 C.ar    1  UNL1        0.1342
     21 C         139.0104  141.6491  161.2699 C.ar    1  UNL1        0.0337
     22 O         140.2735  143.8041  160.5552 O.3     1  UNL1       -0.4758
     23 C         140.5780  145.2588  160.7574 C.3     1  UNL1        0.2057
     24 C         139.9237  146.0135  161.8765 C.3     1  UNL1        0.0521
     25 C         138.9651  145.3134  162.7935 C.3     1  UNL1        0.0333
@<TRIPOS>BOND
     1     1     2    1
     2     2     3    1
     3     3     4    1
     4     4     5    2
     5     5     6    1
     6     6     7   ar
     7     7     8   ar
     8     8     9   ar
     9     9    12    1
    10    12    13    1
    11    12    14    1
    12     9    10   ar
    13    10    11   ar
    14     2    15    1
    15    15    16    1
    16    16    17   ar
    17    17    18   ar
    18    18    19   ar
    19    19    20   ar
    20    20    21   ar
    21    20    22    1
    22    22    23    1
    23    23    24    1
    24    24    25    1
    25    11     6   ar
    26    21    16   ar
    27    25    19    1
@<TRIPOS>MOLECULE
*****
 25 27 0 0 0
SMALL
GASTEIGER

@<TRIPOS>ATOM
      1 C         137.6981  138.5996  161.6831 C.3     1  UNL1        0.0902
      2 N         138.9504  138.1944  162.4024 N.3     1  UNL1       -0.2639
      3 C         138.8838  137.7555  163.8352 C.3     1  UNL1        0.0992
      4 C         138.8892  138.7770  164.9335 C.2     1  UNL1       -0.0088
      5 C         140.1770  139.1461  165.6083 C.2     1  UNL1       -0.0032
      6 C         140.1823  140.1677  166.7067 C.ar    1  UNL1       -0.0003
      7 C         139.6035  139.8292  168.0485 C.ar    1  UNL1       -0.0002
      8 C         139.6088  140.8506  169.1469 C.ar    1  UNL1        0.0011
      9 C         140.1928  142.2106  168.9035 C.ar    1  UNL1        0.0436
     10 C         140.7716  142.5491  167.5617 C.ar    1  UNL1        0.0011
     11 C         140.7663  141.5276  166.4633 C.ar    1  UNL1       -0.0002
     12 C         140.1981  143.2322  170.0019 C.3     1  UNL1        0.3410
     13 F         139.1742  143.1625  171.0958 F       1  UNL1       -0.1933
     14 F         141.2273  144.3234  170.0063 F       1  UNL1       -0.1933
     15 C         140.2694  138.2282  161.6889 C.3     1  UNL1        0.0995
     16 C         141.4412  138.9279  162.3114 C.ar    1  UNL1       -0.0031
     17 C         142.6105  138.1325  162.8115 C.ar    1  UNL1       -0.0030
     18 C         143.7823  138.8321  163.4339 C.ar    1  UNL1       -0.0016
     19 C         143.7848  140.3271  163.5564 C.ar    1  UNL1        0.0119
     20 C         142.6154  141.1225  163.0563 C.ar    1  UNL1        0.1342
     21 C         141.4436  140.4228  162.4338 C.ar    1  UNL1        0.0337
     22 O         142.6179  142.6175  163.1787 O.3     1  UNL1       -0.4758
     23 C         143.7896  143.3171  163.8012 C.3     1  UNL1        0.2057
     24 C         144.9589  142.5217  164.3013 C.3     1  UNL1        0.0521
     25 C         144.9565  141.0267  164.1788 C.3     1  UNL1        0.0333
@<TRIPOS>BOND
     1     1     2    1
     2     2     3    1
     3     3     4    1
     4     4     5    2
     5     5     6    1
     6     6     7   ar
     7     7     8   ar
     8     8     9   ar
     9     9    12    1
    10    12    13    1
    11    12    14    1
    12     9    10   ar
    13    10    11   ar
    14     2    15    1
    15    15    16    1
    16    16    17   ar
    17    17    18   ar
    18    18    19   ar
    19    19    20   ar
    20    20    21   ar
    21    20    22    1
    22    22    23    1
    23    23    24    1
    24    24    25    1
    25    11     6   ar
    26    21    16   ar
    27    25    19    1
@<TRIPOS>MOLECULE
*****
 25 27 0 0 0
SMALL
GASTEIGER

@<TRIPOS>ATOM
      1 C         139.2777  138.0486  161.2313 C.3     1  UNL1        0.0902
      2 N         139.9774  137.8488  162.5429 N.3     1  UNL1       -0.2639
      3 C         139.1795  137.5999  163.7884 C.3     1  UNL1        0.0992
      4 C         139.4901  138.3614  165.0428 C.2     1  UNL1       -0.0088
      5 C         139.3899  139.8579  165.0560 C.2     1  UNL1       -0.0032
      6 C         139.7006  140.6194  166.3106 C.ar    1  UNL1       -0.0003
      7 C         140.2719  142.0037  166.2256 C.ar    1  UNL1       -0.0002
      8 C         140.5826  142.7651  167.4801 C.ar    1  UNL1        0.0011
      9 C         140.3219  142.1422  168.8194 C.ar    1  UNL1        0.0436
     10 C         139.7505  140.7579  168.9044 C.ar    1  UNL1        0.0011
     11 C         139.4399  139.9965  167.6500 C.ar    1  UNL1       -0.0002
     12 C         140.6326  142.9037  170.0740 C.3     1  UNL1        0.3410
     13 F         141.1500  142.1801  171.2818 F       1  UNL1       -0.1933
     14 F         140.4258  144.3886  170.1207 F       1  UNL1       -0.1933
     15 C         141.4751  137.8980  162.6090 C.3     1  UNL1        0.0995
     16 C         142.1600  139.0769  163.2345 C.ar    1  UNL1       -0.0031
     17 C         143.0408  138.8835  164.4332 C.ar    1  UNL1       -0.0030
     18 C         143.7257  140.0623  165.0586 C.ar    1  UNL1       -0.0016
     19 C         143.5298  141.4346  164.4854 C.ar    1  UNL1        0.0119
     20 C         142.6491  141.6280  163.2867 C.ar    1  UNL1        0.1342
     21 C         141.9642  140.4491  162.6612 C.ar    1  UNL1        0.0337
     22 O         142.4532  143.0002  162.7135 O.3     1  UNL1       -0.4758
     23 C         143.1381  144.1790  163.3389 C.3     1  UNL1        0.2057
     24 C         144.0188  143.9856  164.5376 C.3     1  UNL1        0.0521
     25 C         144.2147  142.6134  165.1109 C.3     1  UNL1        0.0333
@<TRIPOS>BOND
     1     1     2    1
     2     2     3    1
     3     3     4    1
     4     4     5    2
     5     5     6    1
     6     6     7   ar
     7     7     8   ar
     8     8     9   ar
     9     9    12    1
    10    12    13    1
    11    12    14    1
    12     9    10   ar
    13    10    11   ar
    14     2    15    1
    15    15    16    1
    16    16    17   ar
    17    17    18   ar
    18    18    19   ar
    19    19    20   ar
    20    20    21   ar
    21    20    22    1
    22    22    23    1
    23    23    24    1
    24    24    25    1
    25    11     6   ar
    26    21    16   ar
    27    25    19    1
@<TRIPOS>MOLECULE
*****
 25 27 0 0 0
SMALL
GASTEIGER

@<TRIPOS>ATOM
      1 C         139.9680  144.7973  160.8409 C.3     1  UNL1        0.0902
      2 N         139.1221  144.2203  161.9370 N.3     1  UNL1       -0.2639
      3 C         139.0884  144.8791  163.2841 C.3     1  UNL1        0.0992
      4 C         140.0600  144.4614  164.3478 C.2     1  UNL1       -0.0088
      5 C         139.6580  143.4421  165.3723 C.2     1  UNL1       -0.0032
      6 C         140.6297  143.0243  166.4360 C.ar    1  UNL1       -0.0003
      7 C         141.9936  142.5306  166.0538 C.ar    1  UNL1       -0.0002
      8 C         142.9652  142.1128  167.1175 C.ar    1  UNL1        0.0011
      9 C         142.5730  142.1888  168.5633 C.ar    1  UNL1        0.0436
     10 C         141.2091  142.6826  168.9454 C.ar    1  UNL1        0.0011
     11 C         140.2374  143.1003  167.8818 C.ar    1  UNL1       -0.0002
     12 C         143.5446  141.7711  169.6270 C.3     1  UNL1        0.3410
     13 F         143.3744  140.4530  170.3224 F       1  UNL1       -0.1933
     14 F         144.6864  142.6714  169.9952 F       1  UNL1       -0.1933
     15 C         138.3098  142.9846  161.6859 C.3     1  UNL1        0.0995
     16 C         138.6663  141.7001  162.3738 C.ar    1  UNL1       -0.0031
     17 C         137.6775  141.0394  163.2880 C.ar    1  UNL1       -0.0030
     18 C         138.0339  139.7550  163.9759 C.ar    1  UNL1       -0.0016
     19 C         139.3792  139.1312  163.7497 C.ar    1  UNL1        0.0119
     20 C         140.3680  139.7919  162.8355 C.ar    1  UNL1        0.1342
     21 C         140.0116  141.0764  162.1476 C.ar    1  UNL1        0.0337
     22 O         141.7133  139.1683  162.6093 O.3     1  UNL1       -0.4758
     23 C         142.0697  137.8839  163.2972 C.3     1  UNL1        0.2057
     24 C         141.0809  137.2232  164.2113 C.3     1  UNL1        0.0521
     25 C         139.7356  137.8469  164.4376 C.3     1  UNL1        0.0333
@<TRIPOS>BOND
     1     1     2    1
     2     2     3    1
     3     3     4    1
     4     4     5    2
     5     5     6    1
     6     6     7   ar
     7     7     8   ar
     8     8     9   ar
     9     9    12    1
    10    12    13    1
    11    12    14    1
    12     9    10   ar
    13    10    11   ar
    14     2    15    1
    15    15    16    1
    16    16    17   ar
    17    17    18   ar
    18    18    19   ar
    19    19    20   ar
    20    20    21   ar
    21    20    22    1
    22    22    23    1
    23    23    24    1
    24    24    25    1
    25    11     6   ar
    26    21    16   ar
    27    25    19    1
@<TRIPOS>MOLECULE
*****
 25 27 0 0 0
SMALL
GASTEIGER

@<TRIPOS>ATOM
      1 C         139.9396  145.1974  161.5934 C.3     1  UNL1        0.0902
      2 N         138.8446  144.2296  161.9316 N.3     1  UNL1       -0.2639
      3 C         137.9672  144.4763  163.1229 C.3     1  UNL1        0.0992
      4 C         138.1892  143.7055  164.3904 C.2     1  UNL1       -0.0088
      5 C         139.4910  142.9961  164.6185 C.2     1  UNL1       -0.0032
      6 C         139.7130  142.2253  165.8861 C.ar    1  UNL1       -0.0003
      7 C         140.3381  142.8970  167.0727 C.ar    1  UNL1       -0.0002
      8 C         140.5601  142.1262  168.3402 C.ar    1  UNL1        0.0011
      9 C         140.1570  140.6837  168.4210 C.ar    1  UNL1        0.0436
     10 C         139.5320  140.0119  167.2344 C.ar    1  UNL1        0.0011
     11 C         139.3100  140.7827  165.9669 C.ar    1  UNL1       -0.0002
     12 C         140.3790  139.9128  169.6886 C.3     1  UNL1        0.3410
     13 F         139.3446  139.9410  170.7744 F       1  UNL1       -0.1933
     14 F         141.6354  139.1138  169.8702 F       1  UNL1       -0.1933
     15 C         138.6271  143.0152  161.0785 C.3     1  UNL1        0.0995
     16 C         138.9083  141.6497  161.6320 C.ar    1  UNL1       -0.0031
     17 C         137.7759  140.7756  162.0833 C.ar    1  UNL1       -0.0030
     18 C         138.0571  139.4101  162.6368 C.ar    1  UNL1       -0.0016
     19 C         139.4707  138.9186  162.7389 C.ar    1  UNL1        0.0119
     20 C         140.6030  139.7927  162.2875 C.ar    1  UNL1        0.1342
     21 C         140.3218  141.1583  161.7341 C.ar    1  UNL1        0.0337
     22 O         142.0165  139.3013  162.3896 O.3     1  UNL1       -0.4758
     23 C         142.2977  137.9358  162.9431 C.3     1  UNL1        0.2057
     24 C         141.1653  137.0617  163.3944 C.3     1  UNL1        0.0521
     25 C         139.7518  137.5531  163.2924 C.3     1  UNL1        0.0333
@<TRIPOS>BOND
     1     1     2    1
     2     2     3    1
     3     3     4    1
     4     4     5    2
     5     5     6    1
     6     6     7   ar
     7     7     8   ar
     8     8     9   ar
     9     9    12    1
    10    12    13    1
    11    12    14    1
    12     9    10   ar
    13    10    11   ar
    14     2    15    1
    15    15    16    1
    16    16    17   ar
    17    17    18   ar
    18    18    19   ar
    19    19    20   ar
    20    20    21   ar
    21    20    22    1
    22    22    23    1
    23    23    24    1
    24    24    25    1
    25    11     6   ar
    26    21    16   ar
    27    25    19    1
@<TRIPOS>MOLECULE
*****
 25 27 0 0 0
SMALL
GASTEIGER

@<TRIPOS>ATOM
      1 C         137.8776  138.7981  161.4811 C.3     1  UNL1        0.0902
      2 N         139.0405  138.1364  162.1592 N.3     1  UNL1       -0.2639
      3 C         138.8536  137.4733  163.4916 C.3     1  UNL1        0.0992
      4 C         139.7332  137.8499  164.6467 C.2     1  UNL1       -0.0088
      5 C         139.5522  139.1748  165.3264 C.2     1  UNL1       -0.0032
      6 C         140.4319  139.5514  166.4816 C.ar    1  UNL1       -0.0003
      7 C         141.9219  139.4273  166.3614 C.ar    1  UNL1       -0.0002
      8 C         142.8016  139.8039  167.5165 C.ar    1  UNL1        0.0011
      9 C         142.1912  140.3046  168.7919 C.ar    1  UNL1        0.0436
     10 C         140.7012  140.4287  168.9121 C.ar    1  UNL1        0.0011
     11 C         139.8215  140.0521  167.7570 C.ar    1  UNL1       -0.0002
     12 C         143.0709  140.6812  169.9471 C.3     1  UNL1        0.3410
     13 F         143.0994  139.8250  171.1783 F       1  UNL1       -0.1933
     14 F         143.9220  141.9140  169.8709 F       1  UNL1       -0.1933
     15 C         140.3902  138.1378  161.5048 C.3     1  UNL1        0.0995
     16 C         141.5334  138.8678  162.1453 C.ar    1  UNL1       -0.0031
     17 C         142.7866  138.1278  162.5085 C.ar    1  UNL1       -0.0030
     18 C         143.9298  138.8577  163.1489 C.ar    1  UNL1       -0.0016
     19 C         143.8199  140.3278  163.4262 C.ar    1  UNL1        0.0119
     20 C         142.5668  141.0679  163.0629 C.ar    1  UNL1        0.1342
     21 C         141.4235  140.3379  162.4225 C.ar    1  UNL1        0.0337
     22 O         142.4568  142.5379  163.3401 O.3     1  UNL1       -0.4758
     23 C         143.6000  143.2679  163.9805 C.3     1  UNL1        0.2057
     24 C         144.8532  142.5278  164.3438 C.3     1  UNL1        0.0521
     25 C         144.9631  141.0578  164.0666 C.3     1  UNL1        0.0333
@<TRIPOS>BOND
     1     1     2    1
     2     2     3    1
     3     3     4    1
     4     4     5    2
     5     5     6    1
     6     6     7   ar
     7     7     8   ar
     8     8     9   ar
     9     9    12    1
    10    12    13    1
    11    12    14    1
    12     9    10   ar
    13    10    11   ar
    14     2    15    1
    15    15    16    1
    16    16    17   ar
    17    17    18   ar
    18    18    19   ar
    19    19    20   ar
    20    20    21   ar
    21    20    22    1
    22    22    23    1
    23    23    24    1
    24    24    25    1
    25    11     6   ar
    26    21    16   ar
    27    25    19    1
@<TRIPOS>MOLECULE
*****
 25 27 0 0 0
SMALL
GASTEIGER

@<TRIPOS>ATOM
      1 C         143.9020  138.4769  161.3734 C.3     1  UNL1        0.0902
      2 N         143.9855  139.6719  162.2762 N.3     1  UNL1       -0.2639
      3 C         144.6798  139.5636  163.6014 C.3     1  UNL1        0.0992
      4 C         143.9309  139.8595  164.8669 C.2     1  UNL1       -0.0088
      5 C         142.6260  139.1735  165.1440 C.2     1  UNL1       -0.0032
      6 C         141.8771  139.4694  166.4096 C.ar    1  UNL1       -0.0003
      7 C         140.4184  139.8147  166.3546 C.ar    1  UNL1       -0.0002
      8 C         139.6695  140.1106  167.6200 C.ar    1  UNL1        0.0011
      9 C         140.3792  140.0612  168.9405 C.ar    1  UNL1        0.0436
     10 C         141.8379  139.7158  168.9956 C.ar    1  UNL1        0.0011
     11 C         142.5868  139.4199  167.7301 C.ar    1  UNL1       -0.0002
     12 C         139.6303  140.3571  170.2061 C.3     1  UNL1        0.3410
     13 F         138.1578  140.0827  170.2878 F       1  UNL1       -0.1933
     14 F         140.3537  140.9273  171.3899 F       1  UNL1       -0.1933
     15 C         143.3746  140.9751  161.8538 C.3     1  UNL1        0.0995
     16 C         142.0321  141.3814  162.3854 C.ar    1  UNL1       -0.0031
     17 C         140.8495  140.4759  162.2073 C.ar    1  UNL1       -0.0030
     18 C         139.5070  140.8821  162.7389 C.ar    1  UNL1       -0.0016
     19 C         139.3470  142.1939  163.4487 C.ar    1  UNL1        0.0119
     20 C         140.5296  143.0993  163.6269 C.ar    1  UNL1        0.1342
     21 C         141.8721  142.6930  163.0952 C.ar    1  UNL1        0.0337
     22 O         140.3696  144.4110  164.3367 O.3     1  UNL1       -0.4758
     23 C         139.0271  144.8172  164.8683 C.3     1  UNL1        0.2057
     24 C         137.8446  143.9118  164.6901 C.3     1  UNL1        0.0521
     25 C         138.0045  142.6001  163.9803 C.3     1  UNL1        0.0333
@<TRIPOS>BOND
     1     1     2    1
     2     2     3    1
     3     3     4    1
     4     4     5    2
     5     5     6    1
     6     6     7   ar
     7     7     8   ar
     8     8     9   ar
     9     9    12    1
    10    12    13    1
    11    12    14    1
    12     9    10   ar
    13    10    11   ar
    14     2    15    1
    15    15    16    1
    16    16    17   ar
    17    17    18   ar
    18    18    19   ar
    19    19    20   ar
    20    20    21   ar
    21    20    22    1
    22    22    23    1
    23    23    24    1
    24    24    25    1
    25    11     6   ar
    26    21    16   ar
    27    25    19    1
@<TRIPOS>MOLECULE
*****
 25 27 0 0 0
SMALL
GASTEIGER

@<TRIPOS>ATOM
      1 C         143.7543  138.4628  161.5605 C.3     1  UNL1        0.0902
      2 N         143.0494  138.5504  162.8816 N.3     1  UNL1       -0.2639
      3 C         143.8105  138.9429  164.1132 C.3     1  UNL1        0.0992
      4 C         143.0939  139.5809  165.2661 C.2     1  UNL1       -0.0088
      5 C         143.1915  141.0619  165.4830 C.2     1  UNL1       -0.0032
      6 C         142.4748  141.6999  166.6361 C.ar    1  UNL1       -0.0003
      7 C         141.0837  142.2306  166.4535 C.ar    1  UNL1       -0.0002
      8 C         140.3671  142.8685  167.6065 C.ar    1  UNL1        0.0011
      9 C         141.0414  142.9758  168.9420 C.ar    1  UNL1        0.0436
     10 C         142.4325  142.4451  169.1245 C.ar    1  UNL1        0.0011
     11 C         143.1492  141.8072  167.9716 C.ar    1  UNL1       -0.0002
     12 C         140.3248  143.6138  170.0950 C.3     1  UNL1        0.3410
     13 F         140.1117  145.0984  170.1168 F       1  UNL1       -0.1933
     14 F         139.8212  142.7672  171.2262 F       1  UNL1       -0.1933
     15 C         141.5835  138.2455  162.9712 C.3     1  UNL1        0.0995
     16 C         140.6076  139.3404  163.2855 C.ar    1  UNL1       -0.0031
     17 C         139.5216  139.1103  164.2943 C.ar    1  UNL1       -0.0030
     18 C         138.5457  140.2052  164.6087 C.ar    1  UNL1       -0.0016
     19 C         138.6556  141.5302  163.9141 C.ar    1  UNL1        0.0119
     20 C         139.7416  141.7603  162.9053 C.ar    1  UNL1        0.1342
     21 C         140.7175  140.6654  162.5909 C.ar    1  UNL1        0.0337
     22 O         139.8516  143.0852  162.2107 O.3     1  UNL1       -0.4758
     23 C         138.8756  144.1800  162.5251 C.3     1  UNL1        0.2057
     24 C         137.7897  143.9499  163.5339 C.3     1  UNL1        0.0521
     25 C         137.6797  142.6250  164.2285 C.3     1  UNL1        0.0333
@<TRIPOS>BOND
     1     1     2    1
     2     2     3    1
     3     3     4    1
     4     4     5    2
     5     5     6    1
     6     6     7   ar
     7     7     8   ar
     8     8     9   ar
     9     9    12    1
    10    12    13    1
    11    12    14    1
    12     9    10   ar
    13    10    11   ar
    14     2    15    1
    15    15    16    1
    16    16    17   ar
    17    17    18   ar
    18    18    19   ar
    19    19    20   ar
    20    20    21   ar
    21    20    22    1
    22    22    23    1
    23    23    24    1
    24    24    25    1
    25    11     6   ar
    26    21    16   ar
    27    25    19    1
