@<TRIPOS>MOLECULE
*****
 40 44 0 0 0
SMALL
GASTEIGER

@<TRIPOS>ATOM
      1 C         141.0028  140.1888  165.3006 C.3     1  UNL1        0.0776
      2 C         142.6325  139.5916  163.3673 C.ar    1  UNL1        0.2211
      3 N         142.9923  139.6341  161.9117 N.ar    1  UNL1       -0.2119
      4 C         142.0823  140.3163  160.9337 C.ar    1  UNL1        0.0843
      5 C         142.4421  140.3588  159.4782 C.ar    1  UNL1        0.0190
      6 C         141.5320  141.0410  158.5003 C.ar    1  UNL1       -0.0003
      7 C         140.2621  141.6807  158.9779 C.ar    1  UNL1        0.0070
      8 C         139.9023  141.6382  160.4335 C.ar    1  UNL1       -0.0004
      9 C         140.8124  140.9560  161.4114 C.ar    1  UNL1        0.0174
     10 C         140.4525  140.9135  162.8670 C.ar    1  UNL1        0.0022
     11 C         141.3626  140.2313  163.8449 C.ar    1  UNL1        0.0373
     12 C         139.3520  142.3629  157.9999 C.3     1  UNL1        0.1636
     13 O         138.0400  142.9241  158.4620 O.3     1  UNL1       -0.3772
     14 H         137.4603  142.1998  158.7451 H       1  UNL1        0.2109
     15 C         144.9693  139.3533  164.4776 C.3     1  UNL1        0.2542
     16 O         143.5426  138.9094  164.3453 O.3     1  UNL1       -0.4563
     17 C         139.8768  139.3158  165.7696 C.ar    1  UNL1       -0.0157
     18 C         139.5824  138.0265  165.0618 C.ar    1  UNL1       -0.0039
     19 C         138.4564  137.1535  165.5308 C.ar    1  UNL1       -0.0003
     20 C         137.6248  137.5698  166.7077 C.ar    1  UNL1       -0.0000
     21 C         137.9191  138.8592  167.4155 C.ar    1  UNL1       -0.0003
     22 C         139.0451  139.7322  166.9465 C.ar    1  UNL1       -0.0039
     23 C         141.7690  141.0193  166.2871 C.3     1  UNL1        0.1158
     24 O         142.3375  139.7718  166.8957 O.3     1  UNL1       -0.3820
     25 H         141.8951  138.9964  166.5164 H       1  UNL1        0.2107
     26 C         141.2004  142.2668  165.6785 C.ar    1  UNL1        0.0024
     27 C         139.7628  142.6266  165.9105 C.ar    1  UNL1       -0.0020
     28 C         139.1942  143.8741  165.3019 C.ar    1  UNL1       -0.0002
     29 C         140.0633  144.7619  164.4612 C.ar    1  UNL1       -0.0000
     30 C         141.5008  144.4021  164.2292 C.ar    1  UNL1       -0.0002
     31 C         142.3699  145.2898  163.3885 C.ar    1  UNL1       -0.0000
     32 C         143.8075  144.9299  163.1564 C.ar    1  UNL1       -0.0000
     33 C         144.3760  143.6824  163.7650 C.ar    1  UNL1       -0.0000
     34 C         143.5070  142.7947  164.6057 C.ar    1  UNL1       -0.0002
     35 C         142.0695  143.1545  164.8378 C.ar    1  UNL1       -0.0018
     36 C         142.5351  141.8498  167.2736 C.3     1  UNL1        0.0491
     37 C         142.5937  141.4383  168.7149 C.3     1  UNL1        0.0750
     38 N         141.3249  141.2069  169.4809 N.3     1  UNL1       -0.2702
     39 C         141.0825  139.8858  170.1489 C.3     1  UNL1        0.0897
     40 C         140.2987  142.2964  169.5790 C.3     1  UNL1        0.0897
@<TRIPOS>BOND
     1    15    16    1
     2    16     2    1
     3     2     3   ar
     4     3     4   ar
     5     4     5   ar
     6     5     6   ar
     7     6     7   ar
     8     7    12    1
     9    12    13    1
    10     7     8   ar
    11     8     9   ar
    12     9    10   ar
    13    10    11   ar
    14    11     1    1
    15     1    17    1
    16    17    18   ar
    17    18    19   ar
    18    19    20   ar
    19    20    21   ar
    20    21    22   ar
    21     1    23    1
    22    23    24    1
    23    23    36    1
    24    36    37    1
    25    37    38    1
    26    38    39    1
    27    38    40    1
    28    23    26    1
    29    26    27   ar
    30    27    28   ar
    31    28    29   ar
    32    29    30   ar
    33    30    31   ar
    34    31    32   ar
    35    32    33   ar
    36    33    34   ar
    37    34    35   ar
    38    11     2   ar
    39    22    17   ar
    40    35    26   ar
    41     9     4   ar
    42    35    30   ar
    43    13    14    1
    44    24    25    1
@<TRIPOS>MOLECULE
*****
 40 44 0 0 0
SMALL
GASTEIGER

@<TRIPOS>ATOM
      1 C         139.5172  140.7870  164.6969 C.3     1  UNL1        0.0776
      2 C         138.9476  139.8509  167.0526 C.ar    1  UNL1        0.2211
      3 N         139.1979  139.8139  168.5311 N.ar    1  UNL1       -0.2119
      4 C         140.2683  140.6758  169.1325 C.ar    1  UNL1        0.0843
      5 C         140.5186  140.6387  170.6109 C.ar    1  UNL1        0.0190
      6 C         141.5889  141.5006  171.2122 C.ar    1  UNL1       -0.0003
      7 C         142.4089  142.3995  170.3350 C.ar    1  UNL1        0.0070
      8 C         142.1586  142.4366  168.8565 C.ar    1  UNL1       -0.0004
      9 C         141.0883  141.5747  168.2553 C.ar    1  UNL1        0.0174
     10 C         140.8379  141.6118  166.7767 C.ar    1  UNL1        0.0022
     11 C         139.7676  140.7499  166.1754 C.ar    1  UNL1        0.0373
     12 C         143.4792  143.2615  170.9363 C.3     1  UNL1        0.1636
     13 O         144.8859  143.1785  170.4223 O.3     1  UNL1       -0.3772
     14 H         145.2518  142.3026  170.6216 H       1  UNL1        0.2109
     15 C         137.2715  137.8760  167.2540 C.3     1  UNL1        0.2542
     16 O         137.8773  138.9890  166.4513 O.3     1  UNL1       -0.4563
     17 C         139.2743  142.0981  164.0100 C.ar    1  UNL1       -0.0157
     18 C         138.0259  142.3025  163.2040 C.ar    1  UNL1       -0.0039
     19 C         137.7829  143.6137  162.5171 C.ar    1  UNL1       -0.0003
     20 C         138.7883  144.7205  162.6363 C.ar    1  UNL1       -0.0000
     21 C         140.0367  144.5161  163.4423 C.ar    1  UNL1       -0.0003
     22 C         140.2797  143.2049  164.1292 C.ar    1  UNL1       -0.0039
     23 C         139.5099  139.5129  163.9053 C.3     1  UNL1        0.1158
     24 O         138.0190  139.6059  163.7694 O.3     1  UNL1       -0.3820
     25 H         137.6874  140.3247  164.3301 H       1  UNL1        0.2107
     26 C         141.0008  139.4199  164.0412 C.ar    1  UNL1        0.0024
     27 C         141.6037  138.6699  165.1919 C.ar    1  UNL1       -0.0020
     28 C         143.0946  138.5769  165.3278 C.ar    1  UNL1       -0.0002
     29 C         143.9826  139.2337  164.3130 C.ar    1  UNL1       -0.0000
     30 C         143.3798  139.9837  163.1623 C.ar    1  UNL1       -0.0002
     31 C         144.2679  140.6405  162.1475 C.ar    1  UNL1       -0.0000
     32 C         143.6649  141.3905  160.9967 C.ar    1  UNL1       -0.0000
     33 C         142.1740  141.4835  160.8609 C.ar    1  UNL1       -0.0000
     34 C         141.2860  140.8267  161.8757 C.ar    1  UNL1       -0.0002
     35 C         141.8888  140.0767  163.0264 C.ar    1  UNL1       -0.0018
     36 C         139.5025  138.2388  163.1137 C.3     1  UNL1        0.0491
     37 C         138.4547  138.0139  162.0642 C.3     1  UNL1        0.0750
     38 N         138.5224  138.7602  160.7647 N.3     1  UNL1       -0.2702
     39 C         137.5058  139.8184  160.4537 C.3     1  UNL1        0.0897
     40 C         139.6067  138.4482  159.7764 C.3     1  UNL1        0.0897
@<TRIPOS>BOND
     1    15    16    1
     2    16     2    1
     3     2     3   ar
     4     3     4   ar
     5     4     5   ar
     6     5     6   ar
     7     6     7   ar
     8     7    12    1
     9    12    13    1
    10     7     8   ar
    11     8     9   ar
    12     9    10   ar
    13    10    11   ar
    14    11     1    1
    15     1    17    1
    16    17    18   ar
    17    18    19   ar
    18    19    20   ar
    19    20    21   ar
    20    21    22   ar
    21     1    23    1
    22    23    24    1
    23    23    36    1
    24    36    37    1
    25    37    38    1
    26    38    39    1
    27    38    40    1
    28    23    26    1
    29    26    27   ar
    30    27    28   ar
    31    28    29   ar
    32    29    30   ar
    33    30    31   ar
    34    31    32   ar
    35    32    33   ar
    36    33    34   ar
    37    34    35   ar
    38    11     2   ar
    39    22    17   ar
    40    35    26   ar
    41     9     4   ar
    42    35    30   ar
    43    13    14    1
    44    24    25    1
@<TRIPOS>MOLECULE
*****
 40 44 0 0 0
SMALL
GASTEIGER

@<TRIPOS>ATOM
      1 C         140.1875  140.7702  165.2831 C.3     1  UNL1        0.0776
      2 C         139.2182  142.3453  163.4584 C.ar    1  UNL1        0.2211
      3 N         139.1858  142.8204  162.0361 N.ar    1  UNL1       -0.2119
      4 C         140.0906  142.1954  161.0158 C.ar    1  UNL1        0.0843
      5 C         140.0583  142.6705  159.5934 C.ar    1  UNL1        0.0190
      6 C         140.9630  142.0455  158.5733 C.ar    1  UNL1       -0.0003
      7 C         141.9001  140.9454  158.9755 C.ar    1  UNL1        0.0070
      8 C         141.9324  140.4703  160.3978 C.ar    1  UNL1       -0.0004
      9 C         141.0277  141.0953  161.4180 C.ar    1  UNL1        0.0174
     10 C         141.0600  140.6202  162.8405 C.ar    1  UNL1        0.0022
     11 C         140.1552  141.2452  163.8607 C.ar    1  UNL1        0.0373
     12 C         142.8048  140.3204  157.9552 C.3     1  UNL1        0.1636
     13 O         144.0550  139.6164  158.3925 O.3     1  UNL1       -0.3772
     14 H         144.6687  140.2589  158.7817 H       1  UNL1        0.2109
     15 C         138.1838  144.4629  164.5521 C.3     1  UNL1        0.2542
     16 O         138.3134  142.9703  164.4787 O.3     1  UNL1       -0.4563
     17 C         139.3611  139.5892  165.6984 C.ar    1  UNL1       -0.0157
     18 C         139.4064  138.3228  164.8959 C.ar    1  UNL1       -0.0039
     19 C         138.5800  137.1418  165.3111 C.ar    1  UNL1       -0.0003
     20 C         137.7083  137.2273  166.5288 C.ar    1  UNL1       -0.0000
     21 C         137.6630  138.4939  167.3313 C.ar    1  UNL1       -0.0003
     22 C         138.4894  139.6748  166.9161 C.ar    1  UNL1       -0.0039
     23 C         141.0462  141.4760  166.2903 C.3     1  UNL1        0.1158
     24 O         139.8890  142.3557  166.6603 O.3     1  UNL1       -0.3820
     25 H         139.1586  142.2074  166.0395 H       1  UNL1        0.2107
     26 C         142.2034  140.5963  165.9202 C.ar    1  UNL1        0.0024
     27 C         142.2540  139.1788  166.4082 C.ar    1  UNL1       -0.0020
     28 C         143.4112  138.2990  166.0382 C.ar    1  UNL1       -0.0002
     29 C         144.5178  138.8368  165.1801 C.ar    1  UNL1       -0.0000
     30 C         144.4672  140.2543  164.6922 C.ar    1  UNL1       -0.0002
     31 C         145.5739  140.7920  163.8342 C.ar    1  UNL1       -0.0000
     32 C         145.5233  142.2096  163.3462 C.ar    1  UNL1       -0.0000
     33 C         144.3661  143.0893  163.7162 C.ar    1  UNL1       -0.0000
     34 C         143.2595  142.5515  164.5742 C.ar    1  UNL1       -0.0002
     35 C         143.3100  141.1341  165.0622 C.ar    1  UNL1       -0.0018
     36 C         141.9049  142.1819  167.2974 C.3     1  UNL1        0.0491
     37 C         141.7852  141.8433  168.7538 C.3     1  UNL1        0.0750
     38 N         140.6184  142.3508  169.5483 N.3     1  UNL1       -0.2702
     39 C         139.5867  141.3908  170.0623 C.3     1  UNL1        0.0897
     40 C         140.4833  143.8181  169.8289 C.3     1  UNL1        0.0897
@<TRIPOS>BOND
     1    15    16    1
     2    16     2    1
     3     2     3   ar
     4     3     4   ar
     5     4     5   ar
     6     5     6   ar
     7     6     7   ar
     8     7    12    1
     9    12    13    1
    10     7     8   ar
    11     8     9   ar
    12     9    10   ar
    13    10    11   ar
    14    11     1    1
    15     1    17    1
    16    17    18   ar
    17    18    19   ar
    18    19    20   ar
    19    20    21   ar
    20    21    22   ar
    21     1    23    1
    22    23    24    1
    23    23    36    1
    24    36    37    1
    25    37    38    1
    26    38    39    1
    27    38    40    1
    28    23    26    1
    29    26    27   ar
    30    27    28   ar
    31    28    29   ar
    32    29    30   ar
    33    30    31   ar
    34    31    32   ar
    35    32    33   ar
    36    33    34   ar
    37    34    35   ar
    38    11     2   ar
    39    22    17   ar
    40    35    26   ar
    41     9     4   ar
    42    35    30   ar
    43    13    14    1
    44    24    25    1
@<TRIPOS>MOLECULE
*****
 40 44 0 0 0
SMALL
GASTEIGER

@<TRIPOS>ATOM
      1 C         140.1589  140.5719  163.3253 C.3     1  UNL1        0.0776
      2 C         139.4781  139.3259  165.5011 C.ar    1  UNL1        0.2211
      3 N         139.3125  139.3108  166.9918 N.ar    1  UNL1       -0.2119
      4 C         139.6623  140.5267  167.7977 C.ar    1  UNL1        0.0843
      5 C         139.4968  140.5116  169.2884 C.ar    1  UNL1        0.0190
      6 C         139.8465  141.7275  170.0942 C.ar    1  UNL1       -0.0003
      7 C         140.3619  142.9584  169.4092 C.ar    1  UNL1        0.0070
      8 C         140.5274  142.9735  167.9185 C.ar    1  UNL1       -0.0004
      9 C         140.1776  141.7577  167.1127 C.ar    1  UNL1        0.0174
     10 C         140.3432  141.7727  165.6219 C.ar    1  UNL1        0.0022
     11 C         139.9934  140.5569  164.8161 C.ar    1  UNL1        0.0373
     12 C         140.7117  144.1743  170.2151 C.3     1  UNL1        0.1636
     13 O         139.6813  145.2380  170.4535 O.3     1  UNL1       -0.3772
     14 H         139.4530  145.6616  169.6113 H       1  UNL1        0.2109
     15 C         140.1458  137.0269  164.4917 C.3     1  UNL1        0.2542
     16 O         139.1283  138.1100  164.6953 O.3     1  UNL1       -0.4563
     17 C         141.5304  140.4989  162.7223 C.ar    1  UNL1       -0.0157
     18 C         141.8645  139.4078  161.7487 C.ar    1  UNL1       -0.0039
     19 C         143.2360  139.3348  161.1456 C.ar    1  UNL1       -0.0003
     20 C         144.2734  140.3529  161.5161 C.ar    1  UNL1       -0.0000
     21 C         143.9393  141.4440  162.4897 C.ar    1  UNL1       -0.0003
     22 C         142.5678  141.5170  163.0928 C.ar    1  UNL1       -0.0039
     23 C         138.9530  140.6600  162.4377 C.3     1  UNL1        0.1158
     24 O         139.0085  139.1777  162.2152 O.3     1  UNL1       -0.3820
     25 H         139.8269  138.8238  162.5971 H       1  UNL1        0.2107
     26 C         138.8975  142.1424  162.6601 C.ar    1  UNL1        0.0024
     27 C         138.1191  142.6988  163.8154 C.ar    1  UNL1       -0.0020
     28 C         138.0637  144.1812  164.0379 C.ar    1  UNL1       -0.0002
     29 C         138.7866  145.1071  163.1051 C.ar    1  UNL1       -0.0000
     30 C         139.5649  144.5508  161.9499 C.ar    1  UNL1       -0.0002
     31 C         140.2878  145.4767  161.0172 C.ar    1  UNL1       -0.0000
     32 C         141.0662  144.9203  159.8619 C.ar    1  UNL1       -0.0000
     33 C         141.1217  143.4380  159.6394 C.ar    1  UNL1       -0.0000
     34 C         140.3988  142.5120  160.5722 C.ar    1  UNL1       -0.0002
     35 C         139.6204  143.0683  161.7274 C.ar    1  UNL1       -0.0018
     36 C         137.7471  140.7481  161.5500 C.3     1  UNL1        0.0491
     37 C         137.5351  139.7294  160.4696 C.3     1  UNL1        0.0750
     38 N         138.2678  139.8544  159.1667 N.3     1  UNL1       -0.2702
     39 C         139.4337  138.9576  158.8728 C.3     1  UNL1        0.0897
     40 C         137.8345  140.8762  158.1576 C.3     1  UNL1        0.0897
@<TRIPOS>BOND
     1    15    16    1
     2    16     2    1
     3     2     3   ar
     4     3     4   ar
     5     4     5   ar
     6     5     6   ar
     7     6     7   ar
     8     7    12    1
     9    12    13    1
    10     7     8   ar
    11     8     9   ar
    12     9    10   ar
    13    10    11   ar
    14    11     1    1
    15     1    17    1
    16    17    18   ar
    17    18    19   ar
    18    19    20   ar
    19    20    21   ar
    20    21    22   ar
    21     1    23    1
    22    23    24    1
    23    23    36    1
    24    36    37    1
    25    37    38    1
    26    38    39    1
    27    38    40    1
    28    23    26    1
    29    26    27   ar
    30    27    28   ar
    31    28    29   ar
    32    29    30   ar
    33    30    31   ar
    34    31    32   ar
    35    32    33   ar
    36    33    34   ar
    37    34    35   ar
    38    11     2   ar
    39    22    17   ar
    40    35    26   ar
    41     9     4   ar
    42    35    30   ar
    43    13    14    1
    44    24    25    1
@<TRIPOS>MOLECULE
*****
 40 44 0 0 0
SMALL
GASTEIGER

@<TRIPOS>ATOM
      1 C         141.6224  141.9778  164.2841 C.3     1  UNL1        0.0776
      2 C         143.5483  142.9845  162.8602 C.ar    1  UNL1        0.2211
      3 N         144.3276  143.0347  161.5795 N.ar    1  UNL1       -0.2119
      4 C         143.9603  142.1286  160.4419 C.ar    1  UNL1        0.0843
      5 C         144.7395  142.1789  159.1613 C.ar    1  UNL1        0.0190
      6 C         144.3722  141.2728  158.0238 C.ar    1  UNL1       -0.0003
      7 C         143.2255  140.3164  158.1669 C.ar    1  UNL1        0.0070
      8 C         142.4462  140.2662  159.4476 C.ar    1  UNL1       -0.0004
      9 C         142.8136  141.1722  160.5851 C.ar    1  UNL1        0.0174
     10 C         142.0343  141.1220  161.8658 C.ar    1  UNL1        0.0022
     11 C         142.4017  142.0281  163.0034 C.ar    1  UNL1        0.0373
     12 C         142.8581  139.4103  157.0293 C.3     1  UNL1        0.1636
     13 O         143.4466  138.0331  156.9473 O.3     1  UNL1       -0.3772
     14 H         144.4032  138.0984  156.8004 H       1  UNL1        0.2109
     15 C         143.5559  145.3458  163.9438 C.3     1  UNL1        0.2542
     16 O         143.9157  143.8906  163.9978 O.3     1  UNL1       -0.4563
     17 C         140.2588  142.5985  164.3571 C.ar    1  UNL1       -0.0157
     18 C         140.0314  143.8110  165.2104 C.ar    1  UNL1       -0.0039
     19 C         138.6678  144.4317  165.2835 C.ar    1  UNL1       -0.0003
     20 C         137.5316  143.8399  164.5032 C.ar    1  UNL1       -0.0000
     21 C         137.7590  142.6274  163.6499 C.ar    1  UNL1       -0.0003
     22 C         139.1226  142.0067  163.5768 C.ar    1  UNL1       -0.0039
     23 C         142.2067  141.3069  165.4917 C.3     1  UNL1        0.1158
     24 O         142.6388  142.6411  166.0239 O.3     1  UNL1       -0.3820
     25 H         142.4960  143.3209  165.3469 H       1  UNL1        0.2107
     26 C         141.7746  139.9727  164.9595 C.ar    1  UNL1        0.0024
     27 C         142.6254  139.2551  163.9538 C.ar    1  UNL1       -0.0020
     28 C         142.1933  137.9210  163.4217 C.ar    1  UNL1       -0.0002
     29 C         140.9105  137.3043  163.8951 C.ar    1  UNL1       -0.0000
     30 C         140.0598  138.0218  164.9008 C.ar    1  UNL1       -0.0002
     31 C         138.7770  137.4052  165.3743 C.ar    1  UNL1       -0.0000
     32 C         137.9263  138.1228  166.3800 C.ar    1  UNL1       -0.0000
     33 C         138.3583  139.4569  166.9122 C.ar    1  UNL1       -0.0000
     34 C         139.6411  140.0736  166.4387 C.ar    1  UNL1       -0.0002
     35 C         140.4918  139.3561  165.4330 C.ar    1  UNL1       -0.0018
     36 C         142.7910  140.6360  166.6993 C.3     1  UNL1        0.0491
     37 C         142.8642  141.3719  168.0044 C.3     1  UNL1        0.0750
     38 N         141.6679  141.4165  168.9084 N.3     1  UNL1       -0.2702
     39 C         140.8194  142.6519  168.9691 C.3     1  UNL1        0.0897
     40 C         141.3202  140.2256  169.7515 C.3     1  UNL1        0.0897
@<TRIPOS>BOND
     1    15    16    1
     2    16     2    1
     3     2     3   ar
     4     3     4   ar
     5     4     5   ar
     6     5     6   ar
     7     6     7   ar
     8     7    12    1
     9    12    13    1
    10     7     8   ar
    11     8     9   ar
    12     9    10   ar
    13    10    11   ar
    14    11     1    1
    15     1    17    1
    16    17    18   ar
    17    18    19   ar
    18    19    20   ar
    19    20    21   ar
    20    21    22   ar
    21     1    23    1
    22    23    24    1
    23    23    36    1
    24    36    37    1
    25    37    38    1
    26    38    39    1
    27    38    40    1
    28    23    26    1
    29    26    27   ar
    30    27    28   ar
    31    28    29   ar
    32    29    30   ar
    33    30    31   ar
    34    31    32   ar
    35    32    33   ar
    36    33    34   ar
    37    34    35   ar
    38    11     2   ar
    39    22    17   ar
    40    35    26   ar
    41     9     4   ar
    42    35    30   ar
    43    13    14    1
    44    24    25    1
@<TRIPOS>MOLECULE
*****
 40 44 0 0 0
SMALL
GASTEIGER

@<TRIPOS>ATOM
      1 C         141.6360  141.3813  163.4625 C.3     1  UNL1        0.0776
      2 C         143.4887  142.9259  162.4972 C.ar    1  UNL1        0.2211
      3 N         144.4177  143.2985  161.3800 N.ar    1  UNL1       -0.2119
      4 C         144.4232  142.4989  160.1109 C.ar    1  UNL1        0.0843
      5 C         145.3522  142.8714  158.9937 C.ar    1  UNL1        0.0190
      6 C         145.3576  142.0719  157.7246 C.ar    1  UNL1       -0.0003
      7 C         144.4340  140.8997  157.5727 C.ar    1  UNL1        0.0070
      8 C         143.5050  140.5272  158.6899 C.ar    1  UNL1       -0.0004
      9 C         143.4996  141.3268  159.9589 C.ar    1  UNL1        0.0174
     10 C         142.5705  140.9542  161.0762 C.ar    1  UNL1        0.0022
     11 C         142.5651  141.7538  162.3452 C.ar    1  UNL1        0.0373
     12 C         144.4395  140.1001  156.3036 C.3     1  UNL1        0.1636
     13 O         145.6735  139.3524  155.8935 O.3     1  UNL1       -0.3772
     14 H         146.3816  139.9835  155.6908 H       1  UNL1        0.2109
     15 C         143.5416  145.2233  163.7094 C.3     1  UNL1        0.2542
     16 O         143.4832  143.7255  163.7663 O.3     1  UNL1       -0.4563
     17 C         142.1460  140.5882  164.6291 C.ar    1  UNL1       -0.0157
     18 C         142.6172  139.1783  164.4290 C.ar    1  UNL1       -0.0039
     19 C         143.1272  138.3853  165.5956 C.ar    1  UNL1       -0.0003
     20 C         143.1660  139.0021  166.9623 C.ar    1  UNL1       -0.0000
     21 C         142.6948  140.4121  167.1625 C.ar    1  UNL1       -0.0003
     22 C         142.1848  141.2052  165.9959 C.ar    1  UNL1       -0.0039
     23 C         140.1970  141.8018  163.4131 C.3     1  UNL1        0.1158
     24 O         140.6114  143.2363  163.5555 O.3     1  UNL1       -0.3820
     25 H         141.5609  143.2810  163.7486 H       1  UNL1        0.2107
     26 C         139.7827  140.3672  163.2706 C.ar    1  UNL1        0.0024
     27 C         139.9347  139.6701  161.9511 C.ar    1  UNL1       -0.0020
     28 C         139.5203  138.2356  161.8086 C.ar    1  UNL1       -0.0002
     29 C         138.9541  137.4980  162.9856 C.ar    1  UNL1       -0.0000
     30 C         138.8021  138.1950  164.3051 C.ar    1  UNL1       -0.0002
     31 C         138.2359  137.4575  165.4821 C.ar    1  UNL1       -0.0000
     32 C         138.0839  138.1546  166.8016 C.ar    1  UNL1       -0.0000
     33 C         138.4982  139.5891  166.9441 C.ar    1  UNL1       -0.0000
     34 C         139.0645  140.3267  165.7671 C.ar    1  UNL1       -0.0002
     35 C         139.2165  139.6297  164.4476 C.ar    1  UNL1       -0.0018
     36 C         138.7581  142.2223  163.3636 C.3     1  UNL1        0.0491
     37 C         138.3182  143.2784  162.3935 C.3     1  UNL1        0.0750
     38 N         138.8876  143.3063  161.0060 N.3     1  UNL1       -0.2702
     39 C         138.4181  142.3152  159.9826 C.3     1  UNL1        0.0897
     40 C         139.9265  144.3251  160.6420 C.3     1  UNL1        0.0897
@<TRIPOS>BOND
     1    15    16    1
     2    16     2    1
     3     2     3   ar
     4     3     4   ar
     5     4     5   ar
     6     5     6   ar
     7     6     7   ar
     8     7    12    1
     9    12    13    1
    10     7     8   ar
    11     8     9   ar
    12     9    10   ar
    13    10    11   ar
    14    11     1    1
    15     1    17    1
    16    17    18   ar
    17    18    19   ar
    18    19    20   ar
    19    20    21   ar
    20    21    22   ar
    21     1    23    1
    22    23    24    1
    23    23    36    1
    24    36    37    1
    25    37    38    1
    26    38    39    1
    27    38    40    1
    28    23    26    1
    29    26    27   ar
    30    27    28   ar
    31    28    29   ar
    32    29    30   ar
    33    30    31   ar
    34    31    32   ar
    35    32    33   ar
    36    33    34   ar
    37    34    35   ar
    38    11     2   ar
    39    22    17   ar
    40    35    26   ar
    41     9     4   ar
    42    35    30   ar
    43    13    14    1
    44    24    25    1
@<TRIPOS>MOLECULE
*****
 40 44 0 0 0
SMALL
GASTEIGER

@<TRIPOS>ATOM
      1 C         141.6092  142.4943  162.8848 C.3     1  UNL1        0.0776
      2 C         143.1642  142.8800  164.9301 C.ar    1  UNL1        0.2211
      3 N         143.4277  142.7624  166.4020 N.ar    1  UNL1       -0.2119
      4 C         142.3997  142.1415  167.3008 C.ar    1  UNL1        0.0843
      5 C         142.6633  142.0239  168.7727 C.ar    1  UNL1        0.0190
      6 C         141.6353  141.4030  169.6714 C.ar    1  UNL1       -0.0003
      7 C         140.3438  140.8997  169.0981 C.ar    1  UNL1        0.0070
      8 C         140.0802  141.0172  167.6262 C.ar    1  UNL1       -0.0004
      9 C         141.1082  141.6382  166.7275 C.ar    1  UNL1        0.0174
     10 C         140.8447  141.7558  165.2555 C.ar    1  UNL1        0.0022
     11 C         141.8727  142.3767  164.3568 C.ar    1  UNL1        0.0373
     12 C         139.3157  140.2787  169.9969 C.3     1  UNL1        0.1636
     13 O         139.7457  139.5329  171.2252 O.3     1  UNL1       -0.3772
     14 H         140.2360  138.7373  170.9654 H       1  UNL1        0.2109
     15 C         144.0662  144.9408  163.6302 C.3     1  UNL1        0.2542
     16 O         144.1922  143.5009  164.0313 O.3     1  UNL1       -0.4563
     17 C         140.9343  143.7177  162.3391 C.ar    1  UNL1       -0.0157
     18 C         139.8720  144.4091  163.1413 C.ar    1  UNL1       -0.0039
     19 C         139.1971  145.6325  162.5956 C.ar    1  UNL1       -0.0003
     20 C         139.5845  146.1646  161.2477 C.ar    1  UNL1       -0.0000
     21 C         140.6468  145.4732  160.4454 C.ar    1  UNL1       -0.0003
     22 C         141.3217  144.2498  160.9911 C.ar    1  UNL1       -0.0039
     23 C         142.0205  141.3886  161.9585 C.3     1  UNL1        0.1158
     24 O         143.3690  142.0254  161.7971 O.3     1  UNL1       -0.3820
     25 H         143.3660  142.8997  162.2172 H       1  UNL1        0.2107
     26 C         140.6721  140.7517  162.1199 C.ar    1  UNL1        0.0024
     27 C         139.4818  141.3254  161.4098 C.ar    1  UNL1       -0.0020
     28 C         138.1334  140.6886  161.5712 C.ar    1  UNL1       -0.0002
     29 C         137.9751  139.4780  162.4427 C.ar    1  UNL1       -0.0000
     30 C         139.1653  138.9043  163.1527 C.ar    1  UNL1       -0.0002
     31 C         139.0070  137.6937  164.0242 C.ar    1  UNL1       -0.0000
     32 C         140.1973  137.1200  164.7343 C.ar    1  UNL1       -0.0000
     33 C         141.5458  137.7568  164.5729 C.ar    1  UNL1       -0.0000
     34 C         141.7040  138.9674  163.7014 C.ar    1  UNL1       -0.0002
     35 C         140.5138  139.5411  162.9914 C.ar    1  UNL1       -0.0018
     36 C         142.4319  140.2828  161.0322 C.3     1  UNL1        0.0491
     37 C         143.3206  140.5776  159.8604 C.3     1  UNL1        0.0750
     38 N         142.9080  141.6021  158.8452 N.3     1  UNL1       -0.2702
     39 C         143.8834  142.6503  158.3984 C.3     1  UNL1        0.0897
     40 C         141.5200  141.5782  158.2770 C.3     1  UNL1        0.0897
@<TRIPOS>BOND
     1    15    16    1
     2    16     2    1
     3     2     3   ar
     4     3     4   ar
     5     4     5   ar
     6     5     6   ar
     7     6     7   ar
     8     7    12    1
     9    12    13    1
    10     7     8   ar
    11     8     9   ar
    12     9    10   ar
    13    10    11   ar
    14    11     1    1
    15     1    17    1
    16    17    18   ar
    17    18    19   ar
    18    19    20   ar
    19    20    21   ar
    20    21    22   ar
    21     1    23    1
    22    23    24    1
    23    23    36    1
    24    36    37    1
    25    37    38    1
    26    38    39    1
    27    38    40    1
    28    23    26    1
    29    26    27   ar
    30    27    28   ar
    31    28    29   ar
    32    29    30   ar
    33    30    31   ar
    34    31    32   ar
    35    32    33   ar
    36    33    34   ar
    37    34    35   ar
    38    11     2   ar
    39    22    17   ar
    40    35    26   ar
    41     9     4   ar
    42    35    30   ar
    43    13    14    1
    44    24    25    1
@<TRIPOS>MOLECULE
*****
 40 44 0 0 0
SMALL
GASTEIGER

@<TRIPOS>ATOM
      1 C         141.2845  141.7213  163.7336 C.3     1  UNL1        0.0776
      2 C         142.5385  140.1131  165.3433 C.ar    1  UNL1        0.2211
      3 N         142.8615  139.6608  166.7366 N.ar    1  UNL1       -0.2119
      4 C         142.2535  140.3647  167.9135 C.ar    1  UNL1        0.0843
      5 C         142.5765  139.9125  169.3067 C.ar    1  UNL1        0.0190
      6 C         141.9686  140.6163  170.4835 C.ar    1  UNL1       -0.0003
      7 C         141.0376  141.7724  170.2671 C.ar    1  UNL1        0.0070
      8 C         140.7146  142.2246  168.8739 C.ar    1  UNL1       -0.0004
      9 C         141.3225  141.5208  167.6971 C.ar    1  UNL1        0.0174
     10 C         140.9995  141.9730  166.3038 C.ar    1  UNL1        0.0022
     11 C         141.6075  141.2691  165.1269 C.ar    1  UNL1        0.0373
     12 C         140.4296  142.4762  171.4440 C.3     1  UNL1        0.1636
     13 O         139.1770  143.2828  171.2705 O.3     1  UNL1       -0.3772
     14 H         139.3605  144.0467  170.7016 H       1  UNL1        0.2109
     15 C         144.6275  139.4728  163.9376 C.3     1  UNL1        0.2542
     16 O         143.1464  139.4092  164.1664 O.3     1  UNL1       -0.4563
     17 C         142.3844  142.1642  162.8149 C.ar    1  UNL1       -0.0157
     18 C         142.4587  141.6225  161.4182 C.ar    1  UNL1       -0.0039
     19 C         143.5587  142.0653  160.4995 C.ar    1  UNL1       -0.0003
     20 C         144.5843  143.0499  160.9776 C.ar    1  UNL1       -0.0000
     21 C         144.5101  143.5917  162.3744 C.ar    1  UNL1       -0.0003
     22 C         143.4101  143.1488  163.2931 C.ar    1  UNL1       -0.0039
     23 C         139.8616  141.7307  163.2591 C.3     1  UNL1        0.1158
     24 O         139.8629  143.2304  163.2847 O.3     1  UNL1       -0.3820
     25 H         140.6793  143.5459  163.7029 H       1  UNL1        0.2107
     26 C         139.8603  140.2309  163.2334 C.ar    1  UNL1        0.0024
     27 C         140.5149  139.4996  162.0990 C.ar    1  UNL1       -0.0020
     28 C         140.5136  137.9999  162.0733 C.ar    1  UNL1       -0.0002
     29 C         139.8578  137.2313  163.1820 C.ar    1  UNL1       -0.0000
     30 C         139.2033  137.9625  164.3164 C.ar    1  UNL1       -0.0002
     31 C         138.5475  137.1940  165.4251 C.ar    1  UNL1       -0.0000
     32 C         137.8929  137.9253  166.5596 C.ar    1  UNL1       -0.0000
     33 C         137.8942  139.4250  166.5852 C.ar    1  UNL1       -0.0000
     34 C         138.5500  140.1936  165.4765 C.ar    1  UNL1       -0.0002
     35 C         139.2045  139.4624  164.3421 C.ar    1  UNL1       -0.0018
     36 C         138.4387  141.7400  162.7845 C.3     1  UNL1        0.0491
     37 C         138.0385  142.6113  161.6310 C.3     1  UNL1        0.0750
     38 N         138.7480  142.4865  160.3152 N.3     1  UNL1       -0.2702
     39 C         139.7016  143.5565  159.8729 C.3     1  UNL1        0.0897
     40 C         138.5040  141.2916  159.4419 C.3     1  UNL1        0.0897
@<TRIPOS>BOND
     1    15    16    1
     2    16     2    1
     3     2     3   ar
     4     3     4   ar
     5     4     5   ar
     6     5     6   ar
     7     6     7   ar
     8     7    12    1
     9    12    13    1
    10     7     8   ar
    11     8     9   ar
    12     9    10   ar
    13    10    11   ar
    14    11     1    1
    15     1    17    1
    16    17    18   ar
    17    18    19   ar
    18    19    20   ar
    19    20    21   ar
    20    21    22   ar
    21     1    23    1
    22    23    24    1
    23    23    36    1
    24    36    37    1
    25    37    38    1
    26    38    39    1
    27    38    40    1
    28    23    26    1
    29    26    27   ar
    30    27    28   ar
    31    28    29   ar
    32    29    30   ar
    33    30    31   ar
    34    31    32   ar
    35    32    33   ar
    36    33    34   ar
    37    34    35   ar
    38    11     2   ar
    39    22    17   ar
    40    35    26   ar
    41     9     4   ar
    42    35    30   ar
    43    13    14    1
    44    24    25    1
@<TRIPOS>MOLECULE
*****
 40 44 0 0 0
SMALL
GASTEIGER

@<TRIPOS>ATOM
      1 C         140.9368  141.9539  162.8193 C.3     1  UNL1        0.0776
      2 C         139.4557  140.9787  164.7181 C.ar    1  UNL1        0.2211
      3 N         139.1993  140.7503  166.1783 N.ar    1  UNL1       -0.2119
      4 C         140.1676  141.2687  167.1999 C.ar    1  UNL1        0.0843
      5 C         139.9112  141.0403  168.6600 C.ar    1  UNL1        0.0190
      6 C         140.8794  141.5587  169.6816 C.ar    1  UNL1       -0.0003
      7 C         142.1042  142.3055  169.2430 C.ar    1  UNL1        0.0070
      8 C         142.3606  142.5339  167.7829 C.ar    1  UNL1       -0.0004
      9 C         141.3923  142.0155  166.7614 C.ar    1  UNL1        0.0174
     10 C         141.6487  142.2439  165.3011 C.ar    1  UNL1        0.0022
     11 C         140.6804  141.7255  164.2796 C.ar    1  UNL1        0.0373
     12 C         143.0725  142.8239  170.2647 C.3     1  UNL1        0.1636
     13 O         144.5487  142.7083  170.0254 O.3     1  UNL1       -0.3772
     14 H         144.8032  141.7723  170.0208 H       1  UNL1        0.2109
     15 C         137.3530  141.3248  163.2319 C.3     1  UNL1        0.2542
     16 O         138.4874  140.4603  163.6965 O.3     1  UNL1       -0.4563
     17 C         140.6705  143.2997  162.2127 C.ar    1  UNL1       -0.0157
     18 C         141.3467  143.6924  160.9327 C.ar    1  UNL1       -0.0039
     19 C         141.0805  145.0382  160.3260 C.ar    1  UNL1       -0.0003
     20 C         140.1380  145.9912  160.9993 C.ar    1  UNL1       -0.0000
     21 C         139.4617  145.5985  162.2794 C.ar    1  UNL1       -0.0003
     22 C         139.7280  144.2527  162.8861 C.ar    1  UNL1       -0.0039
     23 C         141.4595  140.8367  161.9659 C.3     1  UNL1        0.1158
     24 O         140.1371  140.7552  161.2627 O.3     1  UNL1       -0.3820
     25 H         139.4943  141.3230  161.7159 H       1  UNL1        0.2107
     26 C         142.7819  140.9181  162.6691 C.ar    1  UNL1        0.0024
     27 C         143.7862  141.9546  162.2603 C.ar    1  UNL1       -0.0020
     28 C         145.1086  142.0360  162.9635 C.ar    1  UNL1       -0.0002
     29 C         145.4267  141.0810  164.0756 C.ar    1  UNL1       -0.0000
     30 C         144.4225  140.0445  164.4844 C.ar    1  UNL1       -0.0002
     31 C         144.7406  139.0895  165.5965 C.ar    1  UNL1       -0.0000
     32 C         143.7363  138.0530  166.0053 C.ar    1  UNL1       -0.0000
     33 C         142.4139  137.9716  165.3021 C.ar    1  UNL1       -0.0000
     34 C         142.0958  138.9266  164.1900 C.ar    1  UNL1       -0.0002
     35 C         143.1000  139.9630  163.7812 C.ar    1  UNL1       -0.0018
     36 C         141.9821  139.7194  161.1124 C.3     1  UNL1        0.0491
     37 C         141.0359  138.7029  160.5455 C.3     1  UNL1        0.0750
     38 N         140.9491  138.5049  159.0611 N.3     1  UNL1       -0.2702
     39 C         142.1557  138.0532  158.2929 C.3     1  UNL1        0.0897
     40 C         139.6558  138.7586  158.3449 C.3     1  UNL1        0.0897
@<TRIPOS>BOND
     1    15    16    1
     2    16     2    1
     3     2     3   ar
     4     3     4   ar
     5     4     5   ar
     6     5     6   ar
     7     6     7   ar
     8     7    12    1
     9    12    13    1
    10     7     8   ar
    11     8     9   ar
    12     9    10   ar
    13    10    11   ar
    14    11     1    1
    15     1    17    1
    16    17    18   ar
    17    18    19   ar
    18    19    20   ar
    19    20    21   ar
    20    21    22   ar
    21     1    23    1
    22    23    24    1
    23    23    36    1
    24    36    37    1
    25    37    38    1
    26    38    39    1
    27    38    40    1
    28    23    26    1
    29    26    27   ar
    30    27    28   ar
    31    28    29   ar
    32    29    30   ar
    33    30    31   ar
    34    31    32   ar
    35    32    33   ar
    36    33    34   ar
    37    34    35   ar
    38    11     2   ar
    39    22    17   ar
    40    35    26   ar
    41     9     4   ar
    42    35    30   ar
    43    13    14    1
    44    24    25    1
