@<TRIPOS>MOLECULE
*****
 27 30 0 0 0
SMALL
GASTEIGER

@<TRIPOS>ATOM
      1 C         140.7548  142.0109  167.3299 C.3     1  UNL1        0.1686
      2 C         142.0786  141.3076  167.3831 C.3     1  UNL1        0.0595
      3 C         143.0255  141.5758  168.5151 C.3     1  UNL1        0.0614
      4 C         143.6227  142.1298  169.7746 C.3     1  UNL1        0.0175
      5 C         142.6408  143.0969  170.3668 C.3     1  UNL1        0.0175
      6 C         141.4368  143.1406  169.4732 C.3     1  UNL1        0.0614
      7 C         140.3780  142.9826  168.4088 C.3     1  UNL1        0.0595
      8 N         141.6746  142.2005  168.3288 N.3     1  UNL1       -0.2713
      9 O         139.8079  141.7427  166.1979 O.3     1  UNL1       -0.4791
     10 C         139.2736  138.2929  164.3103 C.ar    1  UNL1        0.0561
     11 C         138.4758  137.5333  165.3284 C.ar    1  UNL1        0.0047
     12 C         138.1221  138.1768  166.6363 C.ar    1  UNL1        0.0033
     13 C         138.5661  139.5799  166.9261 C.ar    1  UNL1        0.0369
     14 C         139.3638  140.3395  165.9081 C.ar    1  UNL1        0.1385
     15 C         139.7176  139.6961  164.6001 C.ar    1  UNL1        0.0414
     16 N         138.6497  137.6754  161.8650 N.am    1  UNL1       -0.3253
     17 C         139.6273  137.6494  163.0023 C.2     1  UNL1        0.2428
     18 O         140.9588  136.9798  162.8317 O.2     1  UNL1       -0.2704
     19 H         138.8819  137.2530  161.0065 H       1  UNL1        0.1453
     20 H         137.7759  138.1148  161.9769 H       1  UNL1        0.1453
     21 C         140.7277  141.9323  167.1968 C.3     1  UNL1        0.0991
     22 C         140.5756  142.9358  166.0923 C.ar    1  UNL1       -0.0061
     23 C         139.3180  143.7459  165.9830 C.ar    1  UNL1       -0.0029
     24 C         139.1659  144.7494  164.8785 C.ar    1  UNL1       -0.0003
     25 C         140.2715  144.9427  163.8834 C.ar    1  UNL1       -0.0000
     26 C         141.5292  144.1325  163.9927 C.ar    1  UNL1       -0.0003
     27 C         141.6812  143.1291  165.0972 C.ar    1  UNL1       -0.0029
@<TRIPOS>BOND
     1    16    17   am
     2    17    18    2
     3    17    10    1
     4    10    11   ar
     5    11    12   ar
     6    12    13   ar
     7    13    14   ar
     8    14     9    1
     9     1     9    1
    10     1     2    1
    11     3     2    1
    12     3     4    1
    13     4     5    1
    14     6     5    1
    15     6     7    1
    16     6     8    1
    17     8    21    1
    18    21    22    1
    19    22    23   ar
    20    23    24   ar
    21    24    25   ar
    22    25    26   ar
    23    26    27   ar
    24    14    15   ar
    25    15    10   ar
    26     7     1    1
    27    27    22   ar
    28     8     3    1
    29    16    19    1
    30    16    20    1
@<TRIPOS>MOLECULE
*****
 27 30 0 0 0
SMALL
GASTEIGER

@<TRIPOS>ATOM
      1 C         141.6235  142.3013  165.8856 C.3     1  UNL1        0.1686
      2 C         140.5372  143.1722  165.3276 C.3     1  UNL1        0.0595
      3 C         140.8790  144.2820  164.3782 C.3     1  UNL1        0.0614
      4 C         141.6527  145.2248  163.5049 C.3     1  UNL1        0.0175
      5 C         143.1044  144.8599  163.6011 C.3     1  UNL1        0.0175
      6 C         143.2280  143.6917  164.5338 C.3     1  UNL1        0.0614
      7 C         143.0517  142.5403  165.4942 C.3     1  UNL1        0.0595
      8 N         141.8526  143.3345  165.0141 N.3     1  UNL1       -0.2713
      9 O         141.2817  141.1914  166.8351 O.3     1  UNL1       -0.4791
     10 C         139.5484  138.3224  164.7104 C.ar    1  UNL1        0.0561
     11 C         138.3847  137.9800  165.5927 C.ar    1  UNL1        0.0047
     12 C         138.1866  138.7080  166.8891 C.ar    1  UNL1        0.0033
     13 C         139.1523  139.7785  167.3032 C.ar    1  UNL1        0.0369
     14 C         140.3160  140.1209  166.4209 C.ar    1  UNL1        0.1385
     15 C         140.5141  139.3930  165.1245 C.ar    1  UNL1        0.0414
     16 N         138.6563  137.5873  162.3836 N.am    1  UNL1       -0.3253
     17 C         139.7464  137.5944  163.4140 C.2     1  UNL1        0.2428
     18 O         141.0346  136.8734  163.1479 O.2     1  UNL1       -0.2704
     19 H         138.7862  137.1095  161.5328 H       1  UNL1        0.1453
     20 H         137.8108  138.0605  162.5583 H       1  UNL1        0.1453
     21 C         141.5107  142.2247  165.9635 C.3     1  UNL1        0.0991
     22 C         141.7515  142.3950  167.4342 C.ar    1  UNL1       -0.0061
     23 C         143.0574  141.9663  168.0350 C.ar    1  UNL1       -0.0029
     24 C         143.2982  142.1366  169.5056 C.ar    1  UNL1       -0.0003
     25 C         142.2331  142.7355  170.3756 C.ar    1  UNL1       -0.0000
     26 C         140.9272  143.1642  169.7748 C.ar    1  UNL1       -0.0003
     27 C         140.6865  142.9939  168.3041 C.ar    1  UNL1       -0.0029
@<TRIPOS>BOND
     1    16    17   am
     2    17    18    2
     3    17    10    1
     4    10    11   ar
     5    11    12   ar
     6    12    13   ar
     7    13    14   ar
     8    14     9    1
     9     1     9    1
    10     1     2    1
    11     3     2    1
    12     3     4    1
    13     4     5    1
    14     6     5    1
    15     6     7    1
    16     6     8    1
    17     8    21    1
    18    21    22    1
    19    22    23   ar
    20    23    24   ar
    21    24    25   ar
    22    25    26   ar
    23    26    27   ar
    24    14    15   ar
    25    15    10   ar
    26     7     1    1
    27    27    22   ar
    28     8     3    1
    29    16    19    1
    30    16    20    1
@<TRIPOS>MOLECULE
*****
 27 30 0 0 0
SMALL
GASTEIGER

@<TRIPOS>ATOM
      1 C         142.0169  142.0599  164.7897 C.3     1  UNL1        0.1686
      2 C         143.2463  142.7817  165.2562 C.3     1  UNL1        0.0595
      3 C         144.5821  142.4505  164.6597 C.3     1  UNL1        0.0614
      4 C         145.6523  141.8190  163.8195 C.3     1  UNL1        0.0175
      5 C         145.0040  140.7943  162.9365 C.3     1  UNL1        0.0175
      6 C         143.5331  140.7926  163.2309 C.3     1  UNL1        0.0614
      7 C         142.1234  141.0069  163.7267 C.3     1  UNL1        0.0595
      8 N         143.2724  141.8162  164.2959 N.3     1  UNL1       -0.2713
      9 O         140.6810  142.3910  165.3862 O.3     1  UNL1       -0.4791
     10 C         140.0640  142.1352  169.2981 C.ar    1  UNL1        0.0561
     11 C         139.5412  140.7339  169.4116 C.ar    1  UNL1        0.0047
     12 C         139.3983  139.8850  168.1833 C.ar    1  UNL1        0.0033
     13 C         139.7782  140.4373  166.8415 C.ar    1  UNL1        0.0369
     14 C         140.3010  141.8386  166.7280 C.ar    1  UNL1        0.1385
     15 C         140.4439  142.6876  167.9563 C.ar    1  UNL1        0.0414
     16 N         140.1359  144.4786  170.4178 N.am    1  UNL1       -0.3253
     17 C         140.2069  142.9842  170.5265 C.2     1  UNL1        0.2428
     18 O         140.4208  142.3387  171.8636 O.2     1  UNL1       -0.2704
     19 H         140.2297  145.0357  171.2241 H       1  UNL1        0.1453
     20 H         139.9955  144.9022  169.5403 H       1  UNL1        0.1453
     21 C         141.9366  142.1474  164.8924 C.3     1  UNL1        0.0991
     22 C         140.9271  142.9153  164.0915 C.ar    1  UNL1       -0.0061
     23 C         139.8734  142.1841  163.3137 C.ar    1  UNL1       -0.0029
     24 C         138.8641  142.9520  162.5129 C.ar    1  UNL1       -0.0003
     25 C         138.9084  144.4511  162.4898 C.ar    1  UNL1       -0.0000
     26 C         139.9621  145.1824  163.2676 C.ar    1  UNL1       -0.0003
     27 C         140.9715  144.4144  164.0685 C.ar    1  UNL1       -0.0029
@<TRIPOS>BOND
     1    16    17   am
     2    17    18    2
     3    17    10    1
     4    10    11   ar
     5    11    12   ar
     6    12    13   ar
     7    13    14   ar
     8    14     9    1
     9     1     9    1
    10     1     2    1
    11     3     2    1
    12     3     4    1
    13     4     5    1
    14     6     5    1
    15     6     7    1
    16     6     8    1
    17     8    21    1
    18    21    22    1
    19    22    23   ar
    20    23    24   ar
    21    24    25   ar
    22    25    26   ar
    23    26    27   ar
    24    14    15   ar
    25    15    10   ar
    26     7     1    1
    27    27    22   ar
    28     8     3    1
    29    16    19    1
    30    16    20    1
@<TRIPOS>MOLECULE
*****
 27 30 0 0 0
SMALL
GASTEIGER

@<TRIPOS>ATOM
      1 C         140.4651  141.6429  166.6047 C.3     1  UNL1        0.1686
      2 C         139.8583  140.3404  167.0350 C.3     1  UNL1        0.0595
      3 C         139.4748  140.1294  168.4697 C.3     1  UNL1        0.0614
      4 C         139.2582  140.3557  169.9366 C.3     1  UNL1        0.0175
      5 C         139.7376  141.7379  170.2680 C.3     1  UNL1        0.0175
      6 C         140.2504  142.3657  169.0060 C.3     1  UNL1        0.0614
      7 C         140.6885  142.7344  167.6091 C.3     1  UNL1        0.0595
      8 N         140.0880  141.3716  167.8945 N.3     1  UNL1       -0.2713
      9 O         140.8487  141.8541  165.1699 O.3     1  UNL1       -0.4791
     10 C         143.1949  139.3286  163.2035 C.ar    1  UNL1        0.0561
     11 C         144.5477  139.8950  163.5181 C.ar    1  UNL1        0.0047
     12 C         144.6675  141.1144  164.3834 C.ar    1  UNL1        0.0033
     13 C         143.4345  141.7674  164.9340 C.ar    1  UNL1        0.0369
     14 C         142.0817  141.2010  164.6193 C.ar    1  UNL1        0.1385
     15 C         141.9618  139.9817  163.7541 C.ar    1  UNL1        0.0414
     16 N         141.8305  137.2734  162.3882 N.am    1  UNL1       -0.3253
     17 C         143.0751  138.1092  162.3382 C.2     1  UNL1        0.2428
     18 O         144.2000  137.7255  161.4230 O.2     1  UNL1       -0.2704
     19 H         141.7519  136.4731  161.8203 H       1  UNL1        0.1453
     20 H         141.0922  137.5253  162.9888 H       1  UNL1        0.1453
     21 C         140.4715  141.5827  166.4598 C.3     1  UNL1        0.0991
     22 C         139.6007  142.4142  165.5652 C.ar    1  UNL1       -0.0061
     23 C         138.4684  141.7760  164.8166 C.ar    1  UNL1       -0.0029
     24 C         137.5977  142.6074  163.9220 C.ar    1  UNL1       -0.0003
     25 C         137.8591  144.0772  163.7761 C.ar    1  UNL1       -0.0000
     26 C         138.9915  144.7156  164.5248 C.ar    1  UNL1       -0.0003
     27 C         139.8622  143.8840  165.4194 C.ar    1  UNL1       -0.0029
@<TRIPOS>BOND
     1    16    17   am
     2    17    18    2
     3    17    10    1
     4    10    11   ar
     5    11    12   ar
     6    12    13   ar
     7    13    14   ar
     8    14     9    1
     9     1     9    1
    10     1     2    1
    11     3     2    1
    12     3     4    1
    13     4     5    1
    14     6     5    1
    15     6     7    1
    16     6     8    1
    17     8    21    1
    18    21    22    1
    19    22    23   ar
    20    23    24   ar
    21    24    25   ar
    22    25    26   ar
    23    26    27   ar
    24    14    15   ar
    25    15    10   ar
    26     7     1    1
    27    27    22   ar
    28     8     3    1
    29    16    19    1
    30    16    20    1
@<TRIPOS>MOLECULE
*****
 27 30 0 0 0
SMALL
GASTEIGER

@<TRIPOS>ATOM
      1 C         140.2379  141.7868  165.9222 C.3     1  UNL1        0.1686
      2 C         139.3540  140.8567  165.1452 C.3     1  UNL1        0.0595
      3 C         138.2706  141.4100  164.2676 C.3     1  UNL1        0.0614
      4 C         137.3624  142.3666  163.5535 C.3     1  UNL1        0.0175
      5 C         137.7575  143.7599  163.9440 C.3     1  UNL1        0.0175
      6 C         138.9100  143.6644  164.8994 C.3     1  UNL1        0.0614
      7 C         140.0384  143.2701  165.8215 C.3     1  UNL1        0.0595
      8 N         139.2271  142.2120  165.0993 N.3     1  UNL1       -0.2713
      9 O         141.3213  141.2336  166.7998 O.3     1  UNL1       -0.4791
     10 C         144.3779  140.2879  164.4519 C.ar    1  UNL1        0.0561
     11 C         144.7331  138.9304  164.9819 C.ar    1  UNL1        0.0047
     12 C         143.9511  138.3407  166.1180 C.ar    1  UNL1        0.0033
     13 C         142.8139  139.1084  166.7239 C.ar    1  UNL1        0.0369
     14 C         142.4586  140.4659  166.1939 C.ar    1  UNL1        0.1385
     15 C         143.2406  141.0556  165.0579 C.ar    1  UNL1        0.0414
     16 N         146.2534  141.8667  163.5917 N.am    1  UNL1       -0.3253
     17 C         145.1599  140.8776  163.3158 C.2     1  UNL1        0.2428
     18 O         144.8484  140.4783  161.9038 O.2     1  UNL1       -0.2704
     19 H         146.7667  142.2537  162.8461 H       1  UNL1        0.1453
     20 H         146.4578  142.1287  164.5184 H       1  UNL1        0.1453
     21 C         140.3105  141.6588  165.9770 C.3     1  UNL1        0.0991
     22 C         140.1520  141.6809  167.4684 C.ar    1  UNL1       -0.0061
     23 C         140.6107  142.8737  168.2538 C.ar    1  UNL1       -0.0029
     24 C         140.4522  142.8958  169.7452 C.ar    1  UNL1       -0.0003
     25 C         139.8351  141.7250  170.4512 C.ar    1  UNL1       -0.0000
     26 C         139.3764  140.5322  169.6659 C.ar    1  UNL1       -0.0003
     27 C         139.5349  140.5102  168.1744 C.ar    1  UNL1       -0.0029
@<TRIPOS>BOND
     1    16    17   am
     2    17    18    2
     3    17    10    1
     4    10    11   ar
     5    11    12   ar
     6    12    13   ar
     7    13    14   ar
     8    14     9    1
     9     1     9    1
    10     1     2    1
    11     3     2    1
    12     3     4    1
    13     4     5    1
    14     6     5    1
    15     6     7    1
    16     6     8    1
    17     8    21    1
    18    21    22    1
    19    22    23   ar
    20    23    24   ar
    21    24    25   ar
    22    25    26   ar
    23    26    27   ar
    24    14    15   ar
    25    15    10   ar
    26     7     1    1
    27    27    22   ar
    28     8     3    1
    29    16    19    1
    30    16    20    1
@<TRIPOS>MOLECULE
*****
 27 30 0 0 0
SMALL
GASTEIGER

@<TRIPOS>ATOM
      1 C         140.0756  140.8185  165.1197 C.3     1  UNL1        0.1686
      2 C         139.0389  139.8074  165.5107 C.3     1  UNL1        0.0595
      3 C         138.8286  138.5844  164.6680 C.3     1  UNL1        0.0614
      4 C         138.9610  137.5639  163.5768 C.3     1  UNL1        0.0175
      5 C         140.0368  138.0252  162.6387 C.3     1  UNL1        0.0175
      6 C         140.5692  139.3310  163.1503 C.3     1  UNL1        0.0614
      7 C         140.9021  140.6065  163.8860 C.3     1  UNL1        0.0595
      8 N         139.8225  139.6766  164.4045 N.3     1  UNL1       -0.2713
      9 O         140.2859  142.0415  165.9624 O.3     1  UNL1       -0.4791
     10 C         141.2295  141.4785  169.7758 C.ar    1  UNL1        0.0561
     11 C         142.6995  141.7757  169.7509 C.ar    1  UNL1        0.0047
     12 C         143.3650  142.1615  168.4632 C.ar    1  UNL1        0.0033
     13 C         142.5605  142.2501  167.2004 C.ar    1  UNL1        0.0369
     14 C         141.0905  141.9529  167.2252 C.ar    1  UNL1        0.1385
     15 C         140.4249  141.5671  168.5129 C.ar    1  UNL1        0.0414
     16 N         140.0286  139.7032  171.2442 N.am    1  UNL1       -0.3253
     17 C         140.5640  141.0927  171.0635 C.2     1  UNL1        0.2428
     18 O         140.4339  142.0964  172.1707 O.2     1  UNL1       -0.2704
     19 H         139.5919  139.4500  172.0894 H       1  UNL1        0.1453
     20 H         140.1140  139.0444  170.5176 H       1  UNL1        0.1453
     21 C         140.0327  140.8995  165.2471 C.3     1  UNL1        0.0991
     22 C         139.6667  142.2518  164.7110 C.ar    1  UNL1       -0.0061
     23 C         138.2301  142.6822  164.6791 C.ar    1  UNL1       -0.0029
     24 C         137.8641  144.0344  164.1430 C.ar    1  UNL1       -0.0003
     25 C         138.9346  144.9562  163.6388 C.ar    1  UNL1       -0.0000
     26 C         140.3712  144.5258  163.6706 C.ar    1  UNL1       -0.0003
     27 C         140.7372  143.1735  164.2068 C.ar    1  UNL1       -0.0029
@<TRIPOS>BOND
     1    16    17   am
     2    17    18    2
     3    17    10    1
     4    10    11   ar
     5    11    12   ar
     6    12    13   ar
     7    13    14   ar
     8    14     9    1
     9     1     9    1
    10     1     2    1
    11     3     2    1
    12     3     4    1
    13     4     5    1
    14     6     5    1
    15     6     7    1
    16     6     8    1
    17     8    21    1
    18    21    22    1
    19    22    23   ar
    20    23    24   ar
    21    24    25   ar
    22    25    26   ar
    23    26    27   ar
    24    14    15   ar
    25    15    10   ar
    26     7     1    1
    27    27    22   ar
    28     8     3    1
    29    16    19    1
    30    16    20    1
@<TRIPOS>MOLECULE
*****
 27 30 0 0 0
SMALL
GASTEIGER

@<TRIPOS>ATOM
      1 C         140.9600  140.8793  167.4655 C.3     1  UNL1        0.1686
      2 C         140.3547  141.5879  168.6409 C.3     1  UNL1        0.0595
      3 C         140.9255  141.3865  170.0133 C.3     1  UNL1        0.0614
      4 C         141.7862  140.9063  171.1441 C.3     1  UNL1        0.0175
      5 C         142.8147  139.9719  170.5792 C.3     1  UNL1        0.0175
      6 C         142.5897  139.8746  169.0994 C.3     1  UNL1        0.0614
      7 C         142.1361  139.9694  167.6626 C.3     1  UNL1        0.0595
      8 N         141.4221  140.7489  168.7496 N.3     1  UNL1       -0.2713
      9 O         140.3892  141.0806  166.0930 O.3     1  UNL1       -0.4791
     10 C         142.2430  143.8680  163.9615 C.ar    1  UNL1        0.0561
     11 C         141.1722  144.9145  163.8707 C.ar    1  UNL1        0.0047
     12 C         139.8403  144.6829  164.5207 C.ar    1  UNL1        0.0033
     13 C         139.5794  143.4050  165.2615 C.ar    1  UNL1        0.0369
     14 C         140.6502  142.3586  165.3522 C.ar    1  UNL1        0.1385
     15 C         141.9820  142.5901  164.7023 C.ar    1  UNL1        0.0414
     16 N         143.9023  145.4430  162.7300 N.am    1  UNL1       -0.3253
     17 C         143.5749  144.0996  163.3115 C.2     1  UNL1        0.2428
     18 O         144.5795  142.9876  163.2429 O.2     1  UNL1       -0.2704
     19 H         144.7765  145.5950  162.3034 H       1  UNL1        0.1453
     20 H         143.2430  146.1728  162.7751 H       1  UNL1        0.1453
     21 C         140.8512  140.9503  167.3772 C.3     1  UNL1        0.0991
     22 C         140.1440  139.8223  166.6862 C.ar    1  UNL1       -0.0061
     23 C         140.8369  139.0572  165.5979 C.ar    1  UNL1       -0.0029
     24 C         140.1296  137.9293  164.9069 C.ar    1  UNL1       -0.0003
     25 C         138.7294  137.5665  165.3041 C.ar    1  UNL1       -0.0000
     26 C         138.0364  138.3317  166.3925 C.ar    1  UNL1       -0.0003
     27 C         138.7438  139.4596  167.0834 C.ar    1  UNL1       -0.0029
@<TRIPOS>BOND
     1    16    17   am
     2    17    18    2
     3    17    10    1
     4    10    11   ar
     5    11    12   ar
     6    12    13   ar
     7    13    14   ar
     8    14     9    1
     9     1     9    1
    10     1     2    1
    11     3     2    1
    12     3     4    1
    13     4     5    1
    14     6     5    1
    15     6     7    1
    16     6     8    1
    17     8    21    1
    18    21    22    1
    19    22    23   ar
    20    23    24   ar
    21    24    25   ar
    22    25    26   ar
    23    26    27   ar
    24    14    15   ar
    25    15    10   ar
    26     7     1    1
    27    27    22   ar
    28     8     3    1
    29    16    19    1
    30    16    20    1
@<TRIPOS>MOLECULE
*****
 27 30 0 0 0
SMALL
GASTEIGER

@<TRIPOS>ATOM
      1 C         139.6979  141.4155  165.0482 C.3     1  UNL1        0.1686
      2 C         140.5506  142.4960  164.4520 C.3     1  UNL1        0.0595
      3 C         140.0045  143.3643  163.3577 C.3     1  UNL1        0.0614
      4 C         139.0834  143.9596  162.3343 C.3     1  UNL1        0.0175
      5 C         137.7835  143.2133  162.3909 C.3     1  UNL1        0.0175
      6 C         137.9011  142.1568  163.4492 C.3     1  UNL1        0.0614
      7 C         138.2990  141.2034  164.5500 C.3     1  UNL1        0.0595
      8 N         139.2738  142.2501  164.0467 N.3     1  UNL1       -0.2713
      9 O         140.2440  140.5471  166.1426 O.3     1  UNL1       -0.4791
     10 C         140.3583  142.5341  169.5760 C.ar    1  UNL1        0.0561
     11 C         139.5299  141.6391  170.4493 C.ar    1  UNL1        0.0047
     12 C         138.9395  140.3800  169.8870 C.ar    1  UNL1        0.0033
     13 C         139.1776  140.0160  168.4515 C.ar    1  UNL1        0.0369
     14 C         140.0060  140.9111  167.5782 C.ar    1  UNL1        0.1385
     15 C         140.5963  142.1701  168.1405 C.ar    1  UNL1        0.0414
     16 N         142.3921  143.8284  170.5448 N.am    1  UNL1       -0.3253
     17 C         140.9486  143.7932  170.1384 C.2     1  UNL1        0.2428
     18 O         140.0955  145.0172  170.2942 O.2     1  UNL1       -0.2704
     19 H         142.7796  144.6548  170.9139 H       1  UNL1        0.1453
     20 H         142.9520  143.0251  170.4425 H       1  UNL1        0.1453
     21 C         139.8200  141.3818  165.1411 C.3     1  UNL1        0.0991
     22 C         140.2349  139.9715  164.8430 C.ar    1  UNL1       -0.0061
     23 C         141.6655  139.6645  164.5125 C.ar    1  UNL1       -0.0029
     24 C         142.0804  138.2543  164.2145 C.ar    1  UNL1       -0.0003
     25 C         141.0648  137.1509  164.2468 C.ar    1  UNL1       -0.0000
     26 C         139.6341  137.4578  164.5773 C.ar    1  UNL1       -0.0003
     27 C         139.2193  138.8682  164.8753 C.ar    1  UNL1       -0.0029
@<TRIPOS>BOND
     1    16    17   am
     2    17    18    2
     3    17    10    1
     4    10    11   ar
     5    11    12   ar
     6    12    13   ar
     7    13    14   ar
     8    14     9    1
     9     1     9    1
    10     1     2    1
    11     3     2    1
    12     3     4    1
    13     4     5    1
    14     6     5    1
    15     6     7    1
    16     6     8    1
    17     8    21    1
    18    21    22    1
    19    22    23   ar
    20    23    24   ar
    21    24    25   ar
    22    25    26   ar
    23    26    27   ar
    24    14    15   ar
    25    15    10   ar
    26     7     1    1
    27    27    22   ar
    28     8     3    1
    29    16    19    1
    30    16    20    1
@<TRIPOS>MOLECULE
*****
 27 30 0 0 0
SMALL
GASTEIGER

@<TRIPOS>ATOM
      1 C         142.2140  141.3729  166.7130 C.3     1  UNL1        0.1686
      2 C         141.6632  140.0283  167.0849 C.3     1  UNL1        0.0595
      3 C         141.8585  139.4958  168.4736 C.3     1  UNL1        0.0614
      4 C         142.2757  139.3742  169.9092 C.3     1  UNL1        0.0175
      5 C         143.0245  140.6194  170.2814 C.3     1  UNL1        0.0175
      6 C         143.0702  141.5107  169.0758 C.3     1  UNL1        0.0614
      7 C         142.9602  142.1852  167.7296 C.3     1  UNL1        0.0595
      8 N         142.3495  140.8163  167.9584 N.3     1  UNL1       -0.2713
      9 O         142.0187  141.9055  165.3243 O.3     1  UNL1       -0.4791
     10 C         138.6236  142.5834  163.3843 C.ar    1  UNL1        0.0561
     11 C         138.0851  143.7519  164.1553 C.ar    1  UNL1        0.0047
     12 C         138.8578  144.3050  165.3159 C.ar    1  UNL1        0.0033
     13 C         140.1689  143.6896  165.7055 C.ar    1  UNL1        0.0369
     14 C         140.7075  142.5210  164.9346 C.ar    1  UNL1        0.1385
     15 C         139.9349  141.9679  163.7740 C.ar    1  UNL1        0.0414
     16 N         137.2562  140.6556  162.3054 N.am    1  UNL1       -0.3253
     17 C         137.8509  142.0303  162.2237 C.2     1  UNL1        0.2428
     18 O         137.6729  142.8519  160.9814 O.2     1  UNL1       -0.2704
     19 H         136.7491  140.2926  161.5436 H       1  UNL1        0.1453
     20 H         137.3730  140.1164  163.1208 H       1  UNL1        0.1453
     21 C         142.1542  141.3487  166.5698 C.3     1  UNL1        0.0991
     22 C         143.3110  141.3993  165.6163 C.ar    1  UNL1       -0.0061
     23 C         143.7877  140.1438  164.9481 C.ar    1  UNL1       -0.0029
     24 C         144.9444  140.1943  163.9946 C.ar    1  UNL1       -0.0003
     25 C         145.6247  141.5004  163.7093 C.ar    1  UNL1       -0.0000
     26 C         145.1480  142.7560  164.3775 C.ar    1  UNL1       -0.0003
     27 C         143.9912  142.7054  165.3310 C.ar    1  UNL1       -0.0029
@<TRIPOS>BOND
     1    16    17   am
     2    17    18    2
     3    17    10    1
     4    10    11   ar
     5    11    12   ar
     6    12    13   ar
     7    13    14   ar
     8    14     9    1
     9     1     9    1
    10     1     2    1
    11     3     2    1
    12     3     4    1
    13     4     5    1
    14     6     5    1
    15     6     7    1
    16     6     8    1
    17     8    21    1
    18    21    22    1
    19    22    23   ar
    20    23    24   ar
    21    24    25   ar
    22    25    26   ar
    23    26    27   ar
    24    14    15   ar
    25    15    10   ar
    26     7     1    1
    27    27    22   ar
    28     8     3    1
    29    16    19    1
    30    16    20    1
