@<TRIPOS>MOLECULE
*****
 19 20 0 0 0
SMALL
GASTEIGER

@<TRIPOS>ATOM
      1 C         140.5185  140.3937  167.2298 C.ar    1  UNL1        0.0511
      2 C         141.8954  139.9246  166.8636 C.ar    1  UNL1        0.0163
      3 C         142.7839  139.3183  167.9091 C.ar    1  UNL1        0.0253
      4 C         142.2956  139.1811  169.3206 C.ar    1  UNL1        0.1365
      5 C         140.9187  139.6502  169.6868 C.ar    1  UNL1        0.1541
      6 O         140.4303  139.5130  171.0985 O.3     1  UNL1       -0.5039
      7 C         140.0302  140.2565  168.6414 C.ar    1  UNL1        0.0527
      8 H         140.9853  139.1343  171.7515 H       1  UNL1        0.2923
      9 C         138.5565  140.1731  165.5411 C.3     1  UNL1        0.1122
     10 N         139.6300  141.0000  166.1844 N.pl3   1  UNL1       -0.3040
     11 C         139.8150  142.4332  165.7822 C.3     1  UNL1        0.1122
     12 N         143.1841  138.5748  170.3661 N.2     1  UNL1       -0.1435
     13 N         143.6997  137.1769  170.1933 N.2     1  UNL1       -0.1284
     14 C         144.5882  136.5705  171.2387 C.ar    1  UNL1        0.1838
     15 C         144.4932  135.1053  171.5458 C.ar    1  UNL1        0.0406
     16 C         145.3817  134.4990  172.5912 C.ar    1  UNL1        0.0048
     17 C         146.3652  135.3579  173.3296 C.ar    1  UNL1        0.0208
     18 C         146.4602  136.8231  173.0224 C.ar    1  UNL1        0.1006
     19 N         145.5717  137.4294  171.9770 N.ar    1  UNL1       -0.2236
@<TRIPOS>BOND
     1     9    10    1
     2    10    11    1
     3    10     1    1
     4     1     2   ar
     5     2     3   ar
     6     3     4   ar
     7     4    12    1
     8    12    13    2
     9    13    14    1
    10    14    15   ar
    11    15    16   ar
    12    16    17   ar
    13    17    18   ar
    14    18    19   ar
    15     4     5   ar
    16     5     6    1
    17     5     7   ar
    18     7     1   ar
    19    19    14   ar
    20     6     8    1
@<TRIPOS>MOLECULE
*****
 19 20 0 0 0
SMALL
GASTEIGER

@<TRIPOS>ATOM
      1 C         140.6494  140.2965  167.1125 C.ar    1  UNL1        0.0511
      2 C         140.2965  140.4984  168.5563 C.ar    1  UNL1        0.0163
      3 C         141.1577  139.9014  169.6295 C.ar    1  UNL1        0.0253
      4 C         142.3718  139.1024  169.2590 C.ar    1  UNL1        0.1365
      5 C         142.7248  138.9005  167.8152 C.ar    1  UNL1        0.1541
      6 O         143.9391  138.1014  167.4447 O.3     1  UNL1       -0.5039
      7 C         141.8636  139.4975  166.7420 C.ar    1  UNL1        0.0527
      8 H         144.4770  137.7285  168.1151 H       1  UNL1        0.2923
      9 C         138.5212  140.2057  165.6251 C.3     1  UNL1        0.1122
     10 N         139.7882  140.8935  166.0392 N.pl3   1  UNL1       -0.3040
     11 C         140.1941  142.1783  165.3801 C.3     1  UNL1        0.1122
     12 N         143.2330  138.5054  170.3323 N.2     1  UNL1       -0.1435
     13 N         143.7631  137.1106  170.1793 N.2     1  UNL1       -0.1284
     14 C         144.6243  136.5136  171.2526 C.ar    1  UNL1        0.1838
     15 C         145.5462  137.3894  172.0483 C.ar    1  UNL1        0.0406
     16 C         146.4074  136.7924  173.1215 C.ar    1  UNL1        0.0048
     17 C         146.3467  135.3195  173.3991 C.ar    1  UNL1        0.0208
     18 C         145.4248  134.4437  172.6035 C.ar    1  UNL1        0.1006
     19 N         144.5636  135.0408  171.5302 N.ar    1  UNL1       -0.2236
@<TRIPOS>BOND
     1     9    10    1
     2    10    11    1
     3    10     1    1
     4     1     2   ar
     5     2     3   ar
     6     3     4   ar
     7     4    12    1
     8    12    13    2
     9    13    14    1
    10    14    15   ar
    11    15    16   ar
    12    16    17   ar
    13    17    18   ar
    14    18    19   ar
    15     4     5   ar
    16     5     6    1
    17     5     7   ar
    18     7     1   ar
    19    19    14   ar
    20     6     8    1
@<TRIPOS>MOLECULE
*****
 19 20 0 0 0
SMALL
GASTEIGER

@<TRIPOS>ATOM
      1 C         141.1858  145.2658  155.5787 C.ar    1  UNL1        0.0511
      2 C         139.9911  144.3606  155.6367 C.ar    1  UNL1        0.0163
      3 C         139.4466  143.9216  156.9636 C.ar    1  UNL1        0.0253
      4 C         140.0966  144.3877  158.2325 C.ar    1  UNL1        0.1365
      5 C         141.2912  145.2929  158.1745 C.ar    1  UNL1        0.1541
      6 O         141.9414  145.7592  159.4434 O.3     1  UNL1       -0.5039
      7 C         141.8358  145.7320  156.8476 C.ar    1  UNL1        0.0527
      8 H         141.6012  145.4849  160.2723 H       1  UNL1        0.2923
      9 C         140.9793  146.7081  153.4277 C.3     1  UNL1        0.1122
     10 N         141.7303  145.7049  154.2518 N.pl3   1  UNL1       -0.3040
     11 C         143.0260  145.1406  153.7490 C.3     1  UNL1        0.1122
     12 N         139.5520  143.9487  159.5594 N.2     1  UNL1       -0.1435
     13 N         139.5867  144.8845  160.7311 N.2     1  UNL1       -0.1284
     14 C         139.0421  144.4455  162.0580 C.ar    1  UNL1        0.1838
     15 C         139.5299  145.0928  163.3202 C.ar    1  UNL1        0.0406
     16 C         138.9853  144.6538  164.6471 C.ar    1  UNL1        0.0048
     17 C         137.9529  143.5674  164.7118 C.ar    1  UNL1        0.0208
     18 C         137.4652  142.9202  163.4497 C.ar    1  UNL1        0.1006
     19 N         138.0098  143.3592  162.1228 N.ar    1  UNL1       -0.2236
@<TRIPOS>BOND
     1     9    10    1
     2    10    11    1
     3    10     1    1
     4     1     2   ar
     5     2     3   ar
     6     3     4   ar
     7     4    12    1
     8    12    13    2
     9    13    14    1
    10    14    15   ar
    11    15    16   ar
    12    16    17   ar
    13    17    18   ar
    14    18    19   ar
    15     4     5   ar
    16     5     6    1
    17     5     7   ar
    18     7     1   ar
    19    19    14   ar
    20     6     8    1
@<TRIPOS>MOLECULE
*****
 19 20 0 0 0
SMALL
GASTEIGER

@<TRIPOS>ATOM
      1 C         139.1540  140.0261  160.5158 C.ar    1  UNL1        0.0511
      2 C         140.4047  139.9781  161.3425 C.ar    1  UNL1        0.0163
      3 C         140.3648  140.3798  162.7871 C.ar    1  UNL1        0.0253
      4 C         139.0742  140.8296  163.4051 C.ar    1  UNL1        0.1365
      5 C         137.8235  140.8777  162.5784 C.ar    1  UNL1        0.1541
      6 O         136.5328  141.3275  163.1964 O.3     1  UNL1       -0.5039
      7 C         137.8634  140.4759  161.1338 C.ar    1  UNL1        0.0527
      8 H         136.5079  141.5785  164.0988 H       1  UNL1        0.2923
      9 C         138.3979  140.3912  158.0572 C.3     1  UNL1        0.1122
     10 N         139.1940  139.6244  159.0712 N.pl3   1  UNL1       -0.3040
     11 C         140.0300  138.4558  158.6405 C.3     1  UNL1        0.1122
     12 N         139.0343  141.2314  164.8497 N.2     1  UNL1       -0.1435
     13 N         139.9741  140.5961  165.8311 N.2     1  UNL1       -0.1284
     14 C         139.9342  140.9979  167.2758 C.ar    1  UNL1        0.1838
     15 C         139.3301  140.0768  168.2940 C.ar    1  UNL1        0.0406
     16 C         139.2902  140.4785  169.7386 C.ar    1  UNL1        0.0048
     17 C         139.8544  141.8014  170.1650 C.ar    1  UNL1        0.0208
     18 C         140.4585  142.7224  169.1469 C.ar    1  UNL1        0.1006
     19 N         140.4984  142.3206  167.7022 N.ar    1  UNL1       -0.2236
@<TRIPOS>BOND
     1     9    10    1
     2    10    11    1
     3    10     1    1
     4     1     2   ar
     5     2     3   ar
     6     3     4   ar
     7     4    12    1
     8    12    13    2
     9    13    14    1
    10    14    15   ar
    11    15    16   ar
    12    16    17   ar
    13    17    18   ar
    14    18    19   ar
    15     4     5   ar
    16     5     6    1
    17     5     7   ar
    18     7     1   ar
    19    19    14   ar
    20     6     8    1
@<TRIPOS>MOLECULE
*****
 19 20 0 0 0
SMALL
GASTEIGER

@<TRIPOS>ATOM
      1 C         138.9262  138.8696  165.0741 C.ar    1  UNL1        0.0511
      2 C         138.1455  139.6578  164.0645 C.ar    1  UNL1        0.0163
      3 C         138.4229  139.4847  162.6006 C.ar    1  UNL1        0.0253
      4 C         139.4810  138.5234  162.1462 C.ar    1  UNL1        0.1365
      5 C         140.2616  137.7352  163.1558 C.ar    1  UNL1        0.1541
      6 O         141.3197  136.7739  162.7015 O.3     1  UNL1       -0.5039
      7 C         139.9842  137.9083  164.6197 C.ar    1  UNL1        0.0527
      8 H         141.4930  136.6658  161.7870 H       1  UNL1        0.2923
      9 C         137.4829  138.3406  167.1686 C.3     1  UNL1        0.1122
     10 N         138.6488  139.0427  166.5380 N.pl3   1  UNL1       -0.3040
     11 C         139.5374  139.9178  167.3714 C.3     1  UNL1        0.1122
     12 N         139.7583  138.3503  160.6823 N.2     1  UNL1       -0.1435
     13 N         141.1531  138.5218  160.1578 N.2     1  UNL1       -0.1284
     14 C         141.4305  138.3488  158.6939 C.ar    1  UNL1        0.1838
     15 C         142.6519  137.6024  158.2451 C.ar    1  UNL1        0.0406
     16 C         142.9292  137.4294  156.7811 C.ar    1  UNL1        0.0048
     17 C         141.9853  138.0026  155.7660 C.ar    1  UNL1        0.0208
     18 C         140.7640  138.7489  156.2149 C.ar    1  UNL1        0.1006
     19 N         140.4866  138.9220  157.6788 N.ar    1  UNL1       -0.2236
@<TRIPOS>BOND
     1     9    10    1
     2    10    11    1
     3    10     1    1
     4     1     2   ar
     5     2     3   ar
     6     3     4   ar
     7     4    12    1
     8    12    13    2
     9    13    14    1
    10    14    15   ar
    11    15    16   ar
    12    16    17   ar
    13    17    18   ar
    14    18    19   ar
    15     4     5   ar
    16     5     6    1
    17     5     7   ar
    18     7     1   ar
    19    19    14   ar
    20     6     8    1
@<TRIPOS>MOLECULE
*****
 19 20 0 0 0
SMALL
GASTEIGER

@<TRIPOS>ATOM
      1 C         140.8357  143.9274  163.2307 C.ar    1  UNL1        0.0511
      2 C         141.7249  143.3024  162.1970 C.ar    1  UNL1        0.0163
      3 C         141.7930  143.8835  160.8159 C.ar    1  UNL1        0.0253
      4 C         140.9719  145.0898  160.4684 C.ar    1  UNL1        0.1365
      5 C         140.0827  145.7148  161.5021 C.ar    1  UNL1        0.1541
      6 O         139.2615  146.9211  161.1547 O.3     1  UNL1       -0.5039
      7 C         140.0146  145.1336  162.8833 C.ar    1  UNL1        0.0527
      8 H         139.3040  147.2841  160.2920 H       1  UNL1        0.2923
      9 C         141.8794  142.4734  165.1140 C.3     1  UNL1        0.1122
     10 N         140.7676  143.3462  164.6119 N.pl3   1  UNL1       -0.3040
     11 C         139.5877  143.6378  165.4909 C.3     1  UNL1        0.1122
     12 N         141.0400  145.6710  159.0873 N.2     1  UNL1       -0.1435
     13 N         139.7777  145.9288  158.3190 N.2     1  UNL1       -0.1284
     14 C         139.8458  146.5100  156.9378 C.ar    1  UNL1        0.1838
     15 C         140.7825  145.9243  155.9230 C.ar    1  UNL1        0.0406
     16 C         140.8506  146.5055  154.5419 C.ar    1  UNL1        0.0048
     17 C         139.9820  147.6724  154.1755 C.ar    1  UNL1        0.0208
     18 C         139.0454  148.2580  155.1903 C.ar    1  UNL1        0.1006
     19 N         138.9774  147.6768  156.5715 N.ar    1  UNL1       -0.2236
@<TRIPOS>BOND
     1     9    10    1
     2    10    11    1
     3    10     1    1
     4     1     2   ar
     5     2     3   ar
     6     3     4   ar
     7     4    12    1
     8    12    13    2
     9    13    14    1
    10    14    15   ar
    11    15    16   ar
    12    16    17   ar
    13    17    18   ar
    14    18    19   ar
    15     4     5   ar
    16     5     6    1
    17     5     7   ar
    18     7     1   ar
    19    19    14   ar
    20     6     8    1
@<TRIPOS>MOLECULE
*****
 19 20 0 0 0
SMALL
GASTEIGER

@<TRIPOS>ATOM
      1 C         138.3788  139.5714  164.8220 C.ar    1  UNL1        0.0511
      2 C         137.8928  140.9168  164.3708 C.ar    1  UNL1        0.0163
      3 C         137.6610  141.1801  162.9123 C.ar    1  UNL1        0.0253
      4 C         137.9154  140.0980  161.9052 C.ar    1  UNL1        0.1365
      5 C         138.4014  138.7526  162.3565 C.ar    1  UNL1        0.1541
      6 O         138.6557  137.6705  161.3493 O.3     1  UNL1       -0.5039
      7 C         138.6331  138.4893  163.8149 C.ar    1  UNL1        0.0527
      8 H         138.5110  137.8349  160.4383 H       1  UNL1        0.2923
      9 C         139.8090  139.8932  166.9670 C.3     1  UNL1        0.1122
     10 N         138.6106  139.3081  166.2804 N.pl3   1  UNL1       -0.3040
     11 C         137.6439  138.4597  167.0523 C.3     1  UNL1        0.1122
     12 N         137.6836  140.3613  160.4468 N.2     1  UNL1       -0.1435
     13 N         138.7440  140.0143  159.4443 N.2     1  UNL1       -0.1284
     14 C         138.5123  140.2776  157.9858 C.ar    1  UNL1        0.1838
     15 C         139.6766  140.3527  157.0430 C.ar    1  UNL1        0.0406
     16 C         139.4448  140.6160  155.5846 C.ar    1  UNL1        0.0048
     17 C         138.0488  140.8042  155.0690 C.ar    1  UNL1        0.0208
     18 C         136.8846  140.7290  156.0118 C.ar    1  UNL1        0.1006
     19 N         137.1163  140.4657  157.4702 N.ar    1  UNL1       -0.2236
@<TRIPOS>BOND
     1     9    10    1
     2    10    11    1
     3    10     1    1
     4     1     2   ar
     5     2     3   ar
     6     3     4   ar
     7     4    12    1
     8    12    13    2
     9    13    14    1
    10    14    15   ar
    11    15    16   ar
    12    16    17   ar
    13    17    18   ar
    14    18    19   ar
    15     4     5   ar
    16     5     6    1
    17     5     7   ar
    18     7     1   ar
    19    19    14   ar
    20     6     8    1
@<TRIPOS>MOLECULE
*****
 19 20 0 0 0
SMALL
GASTEIGER

@<TRIPOS>ATOM
      1 C         142.7288  139.1645  160.5550 C.ar    1  UNL1        0.0511
      2 C         142.9309  140.3564  161.4429 C.ar    1  UNL1        0.0163
      3 C         142.5549  140.2837  162.8932 C.ar    1  UNL1        0.0253
      4 C         141.9767  139.0190  163.4556 C.ar    1  UNL1        0.1365
      5 C         141.7746  137.8271  162.5677 C.ar    1  UNL1        0.1541
      6 O         141.1964  136.5624  163.1300 O.3     1  UNL1       -0.5039
      7 C         142.1506  137.8998  161.1174 C.ar    1  UNL1        0.0527
      8 H         140.9615  136.5169  164.0360 H       1  UNL1        0.2923
      9 C         142.7063  138.1336  158.1703 C.3     1  UNL1        0.1122
     10 N         143.1049  139.2372  159.1048 N.pl3   1  UNL1       -0.3040
     11 C         143.8795  140.4135  158.5889 C.3     1  UNL1        0.1122
     12 N         141.6006  138.9463  164.9058 N.2     1  UNL1       -0.1435
     13 N         142.2727  139.8452  165.9009 N.2     1  UNL1       -0.1284
     14 C         141.8966  139.7725  167.3512 C.ar    1  UNL1        0.1838
     15 C         140.5426  140.2374  167.7991 C.ar    1  UNL1        0.0406
     16 C         140.1666  140.1647  169.2494 C.ar    1  UNL1        0.0048
     17 C         141.1445  139.6271  170.2517 C.ar    1  UNL1        0.0208
     18 C         142.4985  139.1622  169.8038 C.ar    1  UNL1        0.1006
     19 N         142.8745  139.2349  168.3535 N.ar    1  UNL1       -0.2236
@<TRIPOS>BOND
     1     9    10    1
     2    10    11    1
     3    10     1    1
     4     1     2   ar
     5     2     3   ar
     6     3     4   ar
     7     4    12    1
     8    12    13    2
     9    13    14    1
    10    14    15   ar
    11    15    16   ar
    12    16    17   ar
    13    17    18   ar
    14    18    19   ar
    15     4     5   ar
    16     5     6    1
    17     5     7   ar
    18     7     1   ar
    19    19    14   ar
    20     6     8    1
@<TRIPOS>MOLECULE
*****
 19 20 0 0 0
SMALL
GASTEIGER

@<TRIPOS>ATOM
      1 C         142.4781  133.0296  155.7181 C.ar    1  UNL1        0.0511
      2 C         143.0094  133.4893  157.0434 C.ar    1  UNL1        0.0163
      3 C         143.4371  134.9154  157.2262 C.ar    1  UNL1        0.0253
      4 C         143.3335  135.8817  156.0836 C.ar    1  UNL1        0.1365
      5 C         142.8023  135.4220  154.7584 C.ar    1  UNL1        0.1541
      6 O         142.6987  136.3884  153.6158 O.3     1  UNL1       -0.5039
      7 C         142.3746  133.9959  154.5756 C.ar    1  UNL1        0.0527
      8 H         142.9659  137.2792  153.7299 H       1  UNL1        0.2923
      9 C         140.8708  131.2797  154.6673 C.3     1  UNL1        0.1122
     10 N         142.0504  131.6035  155.5354 N.pl3   1  UNL1       -0.3040
     11 C         142.8023  130.5013  156.2206 C.3     1  UNL1        0.1122
     12 N         143.7612  137.3078  156.2664 N.2     1  UNL1       -0.1435
     13 N         144.6609  137.9563  155.2564 N.2     1  UNL1       -0.1284
     14 C         145.0886  139.3824  155.4392 C.ar    1  UNL1        0.1838
     15 C         145.5804  140.1743  154.2640 C.ar    1  UNL1        0.0406
     16 C         146.0081  141.6004  154.4468 C.ar    1  UNL1        0.0048
     17 C         145.9440  142.2345  155.8047 C.ar    1  UNL1        0.0208
     18 C         145.4521  141.4425  156.9798 C.ar    1  UNL1        0.1006
     19 N         145.0244  140.0165  156.7970 N.ar    1  UNL1       -0.2236
@<TRIPOS>BOND
     1     9    10    1
     2    10    11    1
     3    10     1    1
     4     1     2   ar
     5     2     3   ar
     6     3     4   ar
     7     4    12    1
     8    12    13    2
     9    13    14    1
    10    14    15   ar
    11    15    16   ar
    12    16    17   ar
    13    17    18   ar
    14    18    19   ar
    15     4     5   ar
    16     5     6    1
    17     5     7   ar
    18     7     1   ar
    19    19    14   ar
    20     6     8    1
