@<TRIPOS>MOLECULE
*****
 34 38 0 0 0
SMALL
GASTEIGER

@<TRIPOS>ATOM
      1 N         141.9267  137.8298  157.5091 N.3     1  UNL1       -0.2704
      2 C         140.5114  138.1981  157.8425 C.3     1  UNL1        0.0722
      3 C         140.1182  138.4514  159.2677 C.3     1  UNL1        0.0175
      4 C         141.1404  138.3365  160.3595 C.3     1  UNL1        0.0060
      5 C         142.5557  137.9682  160.0261 C.3     1  UNL1        0.0175
      6 C         142.9489  137.7149  158.6009 C.3     1  UNL1        0.0722
      7 C         139.7250  138.7047  160.6929 C.3     1  UNL1        0.0216
      8 C         139.3318  138.9580  162.1181 C.3     1  UNL1        0.0922
      9 N         140.3539  138.8431  163.2099 N.pl3   1  UNL1       -0.2932
     10 C         141.7692  138.4749  162.8765 C.3     1  UNL1        0.0922
     11 C         142.1625  138.2215  161.4513 C.3     1  UNL1        0.0216
     12 C         139.9606  139.0965  164.6352 C.ar    1  UNL1        0.1317
     13 C         138.6077  138.6741  165.1263 C.ar    1  UNL1        0.0350
     14 C         138.2145  138.9275  166.5515 C.ar    1  UNL1        0.0147
     15 C         139.1743  139.6031  167.4855 C.ar    1  UNL1        0.0877
     16 C         140.5272  140.0255  166.9944 C.ar    1  UNL1        0.1105
     17 N         140.9204  139.7721  165.5692 N.ar    1  UNL1       -0.2285
     18 C         138.7810  139.8565  168.9108 C.1     1  UNL1        0.1020
     19 N         138.3878  140.1098  170.3359 N.1     1  UNL1       -0.1908
     20 C         142.3200  137.5765  156.0839 C.3     1  UNL1        0.1063
     21 C         143.4409  136.6298  155.7721 C.3     1  UNL1        0.1483
     22 O         144.7934  137.1640  155.4039 O.3     1  UNL1       -0.3786
     23 H         145.3980  136.4246  155.2347 H       1  UNL1        0.2108
     24 C         142.1954  135.2163  153.4374 C.3     1  UNL1        0.0306
     25 C         142.5867  134.4421  154.6611 C.ar    1  UNL1       -0.0238
     26 C         143.2094  135.1488  155.8284 C.ar    1  UNL1        0.0015
     27 C         143.6008  134.3746  157.0521 C.ar    1  UNL1       -0.0020
     28 C         143.3693  132.8936  157.1085 C.ar    1  UNL1        0.0060
     29 C         142.7465  132.1869  155.9412 C.ar    1  UNL1        0.0748
     30 C         142.3552  132.9611  154.7175 C.ar    1  UNL1        0.0233
     31 C         141.7652  131.9991  153.7294 C.3     1  UNL1        0.2352
     32 O         141.7919  130.6303  154.3423 O.3     1  UNL1       -0.4404
     33 C         142.3984  130.7464  155.7093 C.2     1  UNL1        0.3413
     34 O         142.6182  129.6198  156.6749 O.2     1  UNL1       -0.2449
@<TRIPOS>BOND
     1    24    25    1
     2    25    26   ar
     3    26    21    1
     4    21    22    1
     5    21    20    1
     6    20     1    1
     7     1     2    1
     8     2     3    1
     9     3     4    1
    10     4     5    1
    11     5     6    1
    12     4     7    1
    13     7     8    1
    14     8     9    1
    15     9    12    1
    16    12    13   ar
    17    13    14   ar
    18    14    15   ar
    19    15    18    1
    20    18    19    3
    21    15    16   ar
    22    16    17   ar
    23     9    10    1
    24    10    11    1
    25    26    27   ar
    26    27    28   ar
    27    28    29   ar
    28    29    30   ar
    29    30    31    1
    30    31    32    1
    31    32    33    1
    32    33    34    2
    33    30    25   ar
    34     6     1    1
    35    17    12   ar
    36    33    29    1
    37    11     4    1
    38    22    23    1
@<TRIPOS>MOLECULE
*****
 34 38 0 0 0
SMALL
GASTEIGER

@<TRIPOS>ATOM
      1 N         141.5638  137.9340  158.6687 N.3     1  UNL1       -0.2704
      2 C         140.2790  138.4616  159.2352 C.3     1  UNL1        0.0722
      3 C         140.1762  138.7711  160.6993 C.3     1  UNL1        0.0175
      4 C         141.3580  138.5530  161.5969 C.3     1  UNL1        0.0060
      5 C         142.6428  138.0253  161.0303 C.3     1  UNL1        0.0175
      6 C         142.7456  137.7158  159.5662 C.3     1  UNL1        0.0722
      7 C         140.0733  139.0806  162.1635 C.3     1  UNL1        0.0216
      8 C         139.9704  139.3901  163.6276 C.3     1  UNL1        0.0922
      9 N         141.1523  139.1720  164.5251 N.pl3   1  UNL1       -0.2932
     10 C         142.4370  138.6443  163.9586 C.3     1  UNL1        0.0922
     11 C         142.5399  138.3348  162.4944 C.3     1  UNL1        0.0216
     12 C         141.0493  139.4815  165.9893 C.ar    1  UNL1        0.1317
     13 C         139.7209  139.8348  166.5896 C.ar    1  UNL1        0.0350
     14 C         139.6181  140.1443  168.0537 C.ar    1  UNL1        0.0147
     15 C         140.8436  140.1005  168.9174 C.ar    1  UNL1        0.0877
     16 C         142.1720  139.7472  168.3171 C.ar    1  UNL1        0.1105
     17 N         142.2749  139.4377  166.8530 N.ar    1  UNL1       -0.2285
     18 C         140.7407  140.4100  170.3816 C.1     1  UNL1        0.1020
     19 N         140.6377  140.7195  171.8457 N.1     1  UNL1       -0.1908
     20 C         141.6667  137.6245  157.2045 C.3     1  UNL1        0.1063
     21 C         142.8469  136.8613  156.6804 C.3     1  UNL1        0.1483
     22 O         144.0702  137.5962  156.2185 O.3     1  UNL1       -0.3786
     23 H         144.7341  136.9586  155.9126 H       1  UNL1        0.2108
     24 C         141.0826  135.4933  154.6764 C.3     1  UNL1        0.0306
     25 C         141.9216  134.6792  155.6163 C.ar    1  UNL1       -0.0238
     26 C         142.8037  135.3631  156.6183 C.ar    1  UNL1        0.0015
     27 C         143.6427  134.5490  157.5581 C.ar    1  UNL1       -0.0020
     28 C         143.5996  133.0510  157.4960 C.ar    1  UNL1        0.0060
     29 C         142.7175  132.3670  156.4940 C.ar    1  UNL1        0.0748
     30 C         141.8785  133.1811  155.5541 C.ar    1  UNL1        0.0233
     31 C         141.1112  132.2345  154.6794 C.3     1  UNL1        0.2352
     32 O         141.4760  130.8354  155.0786 O.3     1  UNL1       -0.4404
     33 C         142.4687  130.9173  156.2000 C.2     1  UNL1        0.3413
     34 O         143.1016  129.7537  156.9041 O.2     1  UNL1       -0.2449
@<TRIPOS>BOND
     1    24    25    1
     2    25    26   ar
     3    26    21    1
     4    21    22    1
     5    21    20    1
     6    20     1    1
     7     1     2    1
     8     2     3    1
     9     3     4    1
    10     4     5    1
    11     5     6    1
    12     4     7    1
    13     7     8    1
    14     8     9    1
    15     9    12    1
    16    12    13   ar
    17    13    14   ar
    18    14    15   ar
    19    15    18    1
    20    18    19    3
    21    15    16   ar
    22    16    17   ar
    23     9    10    1
    24    10    11    1
    25    26    27   ar
    26    27    28   ar
    27    28    29   ar
    28    29    30   ar
    29    30    31    1
    30    31    32    1
    31    32    33    1
    32    33    34    2
    33    30    25   ar
    34     6     1    1
    35    17    12   ar
    36    33    29    1
    37    11     4    1
    38    22    23    1
@<TRIPOS>MOLECULE
*****
 34 38 0 0 0
SMALL
GASTEIGER

@<TRIPOS>ATOM
      1 N         141.7740  137.8121  157.4567 N.3     1  UNL1       -0.2704
      2 C         142.8282  137.7530  158.5221 C.3     1  UNL1        0.0722
      3 C         142.4629  138.0117  159.9537 C.3     1  UNL1        0.0175
      4 C         141.0434  138.3295  160.3199 C.3     1  UNL1        0.0060
      5 C         139.9892  138.3886  159.2545 C.3     1  UNL1        0.0175
      6 C         140.3545  138.1299  157.8229 C.3     1  UNL1        0.0722
      7 C         142.0977  138.2704  161.3854 C.3     1  UNL1        0.0216
      8 C         141.7324  138.5292  162.8170 C.3     1  UNL1        0.0922
      9 N         140.3129  138.8470  163.1832 N.pl3   1  UNL1       -0.2932
     10 C         139.2587  138.9060  162.1178 C.3     1  UNL1        0.0922
     11 C         139.6240  138.6473  160.6861 C.3     1  UNL1        0.0216
     12 C         139.9477  139.1057  164.6150 C.ar    1  UNL1        0.1317
     13 C         138.5794  138.7498  165.1160 C.ar    1  UNL1        0.0350
     14 C         138.2142  139.0085  166.5476 C.ar    1  UNL1        0.0147
     15 C         139.2173  139.6232  167.4782 C.ar    1  UNL1        0.0877
     16 C         140.5856  139.9791  166.9772 C.ar    1  UNL1        0.1105
     17 N         140.9508  139.7203  165.5456 N.ar    1  UNL1       -0.2285
     18 C         138.8520  139.8819  168.9100 C.1     1  UNL1        0.1020
     19 N         138.4868  140.1406  170.3416 N.1     1  UNL1       -0.1908
     20 C         142.1392  137.5533  156.0249 C.3     1  UNL1        0.1063
     21 C         143.1966  136.5430  155.6915 C.3     1  UNL1        0.1483
     22 O         144.6410  136.9473  155.6727 O.3     1  UNL1       -0.3786
     23 H         145.1883  136.1809  155.4405 H       1  UNL1        0.2108
     24 C         143.7258  134.3642  157.6847 C.3     1  UNL1        0.0306
     25 C         143.0742  134.0390  156.3733 C.ar    1  UNL1       -0.0238
     26 C         142.8096  135.1284  155.3767 C.ar    1  UNL1        0.0015
     27 C         142.1580  134.8031  154.0654 C.ar    1  UNL1       -0.0020
     28 C         141.7710  133.3885  153.7506 C.ar    1  UNL1        0.0060
     29 C         142.0357  132.2992  154.7471 C.ar    1  UNL1        0.0748
     30 C         142.6872  132.6244  156.0585 C.ar    1  UNL1        0.0233
     31 C         142.8214  131.3499  156.8381 C.3     1  UNL1        0.2352
     32 O         142.2527  130.2371  156.0086 O.3     1  UNL1       -0.4404
     33 C         141.7671  130.8237  154.7163 C.2     1  UNL1        0.3413
     34 O         141.1256  130.0677  153.5908 O.2     1  UNL1       -0.2449
@<TRIPOS>BOND
     1    24    25    1
     2    25    26   ar
     3    26    21    1
     4    21    22    1
     5    21    20    1
     6    20     1    1
     7     1     2    1
     8     2     3    1
     9     3     4    1
    10     4     5    1
    11     5     6    1
    12     4     7    1
    13     7     8    1
    14     8     9    1
    15     9    12    1
    16    12    13   ar
    17    13    14   ar
    18    14    15   ar
    19    15    18    1
    20    18    19    3
    21    15    16   ar
    22    16    17   ar
    23     9    10    1
    24    10    11    1
    25    26    27   ar
    26    27    28   ar
    27    28    29   ar
    28    29    30   ar
    29    30    31    1
    30    31    32    1
    31    32    33    1
    32    33    34    2
    33    30    25   ar
    34     6     1    1
    35    17    12   ar
    36    33    29    1
    37    11     4    1
    38    22    23    1
@<TRIPOS>MOLECULE
*****
 34 38 0 0 0
SMALL
GASTEIGER

@<TRIPOS>ATOM
      1 N         144.7381  141.3318  163.1852 N.3     1  UNL1       -0.2704
      2 C         144.4112  139.8767  163.3454 C.3     1  UNL1        0.0722
      3 C         143.9635  139.0737  162.1602 C.3     1  UNL1        0.0175
      4 C         143.8426  139.7258  160.8148 C.3     1  UNL1        0.0060
      5 C         144.1695  141.1810  160.6546 C.3     1  UNL1        0.0175
      6 C         144.6172  141.9840  161.8398 C.3     1  UNL1        0.0722
      7 C         143.5158  138.2706  160.9749 C.3     1  UNL1        0.0216
      8 C         143.0681  137.4676  159.7897 C.3     1  UNL1        0.0922
      9 N         142.9472  138.1198  158.4443 N.pl3   1  UNL1       -0.2932
     10 C         143.2740  139.5749  158.2841 C.3     1  UNL1        0.0922
     11 C         143.7218  140.3780  159.4694 C.3     1  UNL1        0.0216
     12 C         142.4994  137.3167  157.2591 C.ar    1  UNL1        0.1317
     13 C         141.0625  137.3502  156.8300 C.ar    1  UNL1        0.0350
     14 C         140.6149  136.5472  155.6449 C.ar    1  UNL1        0.0147
     15 C         141.6041  135.7107  154.8888 C.ar    1  UNL1        0.0877
     16 C         143.0410  135.6772  155.3179 C.ar    1  UNL1        0.1105
     17 N         143.4887  136.4802  156.5030 N.ar    1  UNL1       -0.2285
     18 C         141.1564  134.9076  153.7035 C.1     1  UNL1        0.1020
     19 N         140.7087  134.1045  152.5184 N.1     1  UNL1       -0.1908
     20 C         145.1858  142.1349  164.3704 C.3     1  UNL1        0.1063
     21 C         144.1894  142.9408  165.1499 C.3     1  UNL1        0.1483
     22 O         144.5796  143.5464  166.4656 O.3     1  UNL1       -0.3786
     23 H         143.8249  144.0312  166.8349 H       1  UNL1        0.2108
     24 C         143.5656  145.3417  163.4628 C.3     1  UNL1        0.0306
     25 C         142.4910  144.3415  163.7703 C.ar    1  UNL1       -0.0238
     26 C         142.8028  143.1410  164.6139 C.ar    1  UNL1        0.0015
     27 C         141.7282  142.1407  164.9214 C.ar    1  UNL1       -0.0020
     28 C         140.3416  142.3409  164.3853 C.ar    1  UNL1        0.0060
     29 C         140.0297  143.5414  163.5418 C.ar    1  UNL1        0.0748
     30 C         141.1044  144.5417  163.2343 C.ar    1  UNL1        0.0233
     31 C         140.5039  145.6199  162.3818 C.3     1  UNL1        0.2352
     32 O         139.0580  145.2860  162.1623 O.3     1  UNL1       -0.4404
     33 C         138.7650  144.0014  162.8793 C.2     1  UNL1        0.3413
     34 O         137.4400  143.3000  162.9256 O.2     1  UNL1       -0.2449
@<TRIPOS>BOND
     1    24    25    1
     2    25    26   ar
     3    26    21    1
     4    21    22    1
     5    21    20    1
     6    20     1    1
     7     1     2    1
     8     2     3    1
     9     3     4    1
    10     4     5    1
    11     5     6    1
    12     4     7    1
    13     7     8    1
    14     8     9    1
    15     9    12    1
    16    12    13   ar
    17    13    14   ar
    18    14    15   ar
    19    15    18    1
    20    18    19    3
    21    15    16   ar
    22    16    17   ar
    23     9    10    1
    24    10    11    1
    25    26    27   ar
    26    27    28   ar
    27    28    29   ar
    28    29    30   ar
    29    30    31    1
    30    31    32    1
    31    32    33    1
    32    33    34    2
    33    30    25   ar
    34     6     1    1
    35    17    12   ar
    36    33    29    1
    37    11     4    1
    38    22    23    1
@<TRIPOS>MOLECULE
*****
 34 38 0 0 0
SMALL
GASTEIGER

@<TRIPOS>ATOM
      1 N         139.9783  142.7652  160.6744 N.3     1  UNL1       -0.2704
      2 C         141.3727  142.2162  160.7380 C.3     1  UNL1        0.0722
      3 C         141.7318  140.9886  159.9543 C.3     1  UNL1        0.0175
      4 C         140.6966  140.3102  159.1071 C.3     1  UNL1        0.0060
      5 C         139.3021  140.8592  159.0435 C.3     1  UNL1        0.0175
      6 C         138.9430  142.0867  159.8271 C.3     1  UNL1        0.0722
      7 C         142.0910  139.7610  159.1707 C.3     1  UNL1        0.0216
      8 C         142.4502  138.5335  158.3870 C.3     1  UNL1        0.0922
      9 N         141.4149  137.8550  157.5397 N.pl3   1  UNL1       -0.2932
     10 C         140.0205  138.4041  157.4761 C.3     1  UNL1        0.0922
     11 C         139.6613  139.6317  158.2598 C.3     1  UNL1        0.0216
     12 C         141.7741  136.6275  156.7561 C.ar    1  UNL1        0.1317
     13 C         140.9560  136.2339  155.5620 C.ar    1  UNL1        0.0350
     14 C         141.3152  135.0063  154.7784 C.ar    1  UNL1        0.0147
     15 C         142.4925  134.1724  155.1889 C.ar    1  UNL1        0.0877
     16 C         143.3106  134.5660  156.3829 C.ar    1  UNL1        0.1105
     17 N         142.9514  135.7935  157.1665 N.ar    1  UNL1       -0.2285
     18 C         142.8517  132.9448  154.4052 C.1     1  UNL1        0.1020
     19 N         143.2109  131.7173  153.6215 N.1     1  UNL1       -0.1908
     20 C         139.6191  143.9928  161.4581 C.3     1  UNL1        0.1063
     21 C         138.6561  143.8959  162.6040 C.3     1  UNL1        0.1483
     22 O         137.3541  144.6392  162.5544 O.3     1  UNL1       -0.3786
     23 H         136.8538  144.4696  163.3679 H       1  UNL1        0.2108
     24 C         137.3667  141.2113  162.9651 C.3     1  UNL1        0.0306
     25 C         138.3503  141.7135  163.9801 C.ar    1  UNL1       -0.0238
     26 C         138.9950  143.0558  163.7996 C.ar    1  UNL1        0.0015
     27 C         139.9786  143.5580  164.8146 C.ar    1  UNL1       -0.0020
     28 C         140.3175  142.7180  166.0101 C.ar    1  UNL1        0.0060
     29 C         139.6729  141.3757  166.1907 C.ar    1  UNL1        0.0748
     30 C         138.6892  140.8735  165.1756 C.ar    1  UNL1        0.0233
     31 C         138.2174  139.5200  165.6176 C.3     1  UNL1        0.2352
     32 O         138.9094  139.1856  166.9058 O.3     1  UNL1       -0.4404
     33 C         139.8089  140.3325  167.2599 C.2     1  UNL1        0.3413
     34 O         140.6898  140.4208  168.4708 O.2     1  UNL1       -0.2449
@<TRIPOS>BOND
     1    24    25    1
     2    25    26   ar
     3    26    21    1
     4    21    22    1
     5    21    20    1
     6    20     1    1
     7     1     2    1
     8     2     3    1
     9     3     4    1
    10     4     5    1
    11     5     6    1
    12     4     7    1
    13     7     8    1
    14     8     9    1
    15     9    12    1
    16    12    13   ar
    17    13    14   ar
    18    14    15   ar
    19    15    18    1
    20    18    19    3
    21    15    16   ar
    22    16    17   ar
    23     9    10    1
    24    10    11    1
    25    26    27   ar
    26    27    28   ar
    27    28    29   ar
    28    29    30   ar
    29    30    31    1
    30    31    32    1
    31    32    33    1
    32    33    34    2
    33    30    25   ar
    34     6     1    1
    35    17    12   ar
    36    33    29    1
    37    11     4    1
    38    22    23    1
@<TRIPOS>MOLECULE
*****
 34 38 0 0 0
SMALL
GASTEIGER

@<TRIPOS>ATOM
      1 N         144.2014  142.2158  161.3111 N.3     1  UNL1       -0.2704
      2 C         144.0063  140.8630  161.9291 C.3     1  UNL1        0.0722
      3 C         143.6499  139.6888  161.0665 C.3     1  UNL1        0.0175
      4 C         143.4886  139.8673  159.5860 C.3     1  UNL1        0.0060
      5 C         143.6837  141.2200  158.9679 C.3     1  UNL1        0.0175
      6 C         144.0402  142.3943  159.8305 C.3     1  UNL1        0.0722
      7 C         143.2934  138.5145  160.2040 C.3     1  UNL1        0.0216
      8 C         142.9369  137.3402  159.3414 C.3     1  UNL1        0.0922
      9 N         142.7756  137.5187  157.8608 N.pl3   1  UNL1       -0.2932
     10 C         142.9708  138.8715  157.2428 C.3     1  UNL1        0.0922
     11 C         143.3273  140.0458  158.1054 C.3     1  UNL1        0.0216
     12 C         142.4192  136.3444  156.9982 C.ar    1  UNL1        0.1317
     13 C         141.3727  136.4865  155.9330 C.ar    1  UNL1        0.0350
     14 C         141.0163  135.3122  155.0705 C.ar    1  UNL1        0.0147
     15 C         141.7064  133.9958  155.2732 C.ar    1  UNL1        0.0877
     16 C         142.7528  133.8538  156.3385 C.ar    1  UNL1        0.1105
     17 N         143.1092  135.0281  157.2010 N.ar    1  UNL1       -0.2285
     18 C         141.3499  132.8215  154.4107 C.1     1  UNL1        0.1020
     19 N         140.9935  131.6472  153.5481 N.1     1  UNL1       -0.1908
     20 C         144.5579  143.3901  162.1737 C.3     1  UNL1        0.1063
     21 C         143.4966  144.0779  162.9802 C.3     1  UNL1        0.1483
     22 O         143.1829  145.5232  162.7299 O.3     1  UNL1       -0.3786
     23 H         142.4786  145.8101  163.3319 H       1  UNL1        0.2108
     24 C         144.7316  143.6578  165.6818 C.3     1  UNL1        0.0306
     25 C         143.3664  143.1103  165.3879 C.ar    1  UNL1       -0.0238
     26 C         142.7489  143.3203  164.0372 C.ar    1  UNL1        0.0015
     27 C         141.3836  142.7728  163.7433 C.ar    1  UNL1       -0.0020
     28 C         140.6359  142.0152  164.8001 C.ar    1  UNL1        0.0060
     29 C         141.2534  141.8052  166.1509 C.ar    1  UNL1        0.0748
     30 C         142.6186  142.3527  166.4447 C.ar    1  UNL1        0.0233
     31 C         142.9690  141.9906  167.8576 C.3     1  UNL1        0.2352
     32 O         141.8203  141.2193  168.4369 O.3     1  UNL1       -0.4404
     33 C         140.7600  141.1047  167.3821 C.2     1  UNL1        0.3413
     34 O         139.4384  140.4114  167.5321 O.2     1  UNL1       -0.2449
@<TRIPOS>BOND
     1    24    25    1
     2    25    26   ar
     3    26    21    1
     4    21    22    1
     5    21    20    1
     6    20     1    1
     7     1     2    1
     8     2     3    1
     9     3     4    1
    10     4     5    1
    11     5     6    1
    12     4     7    1
    13     7     8    1
    14     8     9    1
    15     9    12    1
    16    12    13   ar
    17    13    14   ar
    18    14    15   ar
    19    15    18    1
    20    18    19    3
    21    15    16   ar
    22    16    17   ar
    23     9    10    1
    24    10    11    1
    25    26    27   ar
    26    27    28   ar
    27    28    29   ar
    28    29    30   ar
    29    30    31    1
    30    31    32    1
    31    32    33    1
    32    33    34    2
    33    30    25   ar
    34     6     1    1
    35    17    12   ar
    36    33    29    1
    37    11     4    1
    38    22    23    1
@<TRIPOS>MOLECULE
*****
 34 38 0 0 0
SMALL
GASTEIGER

@<TRIPOS>ATOM
      1 N         140.3042  141.5569  162.5180 N.3     1  UNL1       -0.2704
      2 C         140.2908  143.0400  162.7419 C.3     1  UNL1        0.0722
      3 C         140.2321  143.9747  161.5702 C.3     1  UNL1        0.0175
      4 C         140.1869  143.4264  160.1748 C.3     1  UNL1        0.0060
      5 C         140.2003  141.9433  159.9510 C.3     1  UNL1        0.0175
      6 C         140.2590  141.0085  161.1226 C.3     1  UNL1        0.0722
      7 C         140.1735  144.9096  160.3986 C.3     1  UNL1        0.0216
      8 C         140.1148  145.8443  159.2270 C.3     1  UNL1        0.0922
      9 N         140.0696  145.2960  157.8315 N.pl3   1  UNL1       -0.2932
     10 C         140.0830  143.8129  157.6077 C.3     1  UNL1        0.0922
     11 C         140.1417  142.8780  158.7794 C.3     1  UNL1        0.0216
     12 C         140.0109  146.2308  156.6599 C.ar    1  UNL1        0.1317
     13 C         140.7926  145.9253  155.4167 C.ar    1  UNL1        0.0350
     14 C         140.7339  146.8601  154.2451 C.ar    1  UNL1        0.0147
     15 C         139.8935  148.1005  154.3168 C.ar    1  UNL1        0.0877
     16 C         139.1118  148.4061  155.5599 C.ar    1  UNL1        0.1105
     17 N         139.1705  147.4712  156.7315 N.ar    1  UNL1       -0.2285
     18 C         139.8348  149.0353  153.1451 C.1     1  UNL1        0.1020
     19 N         139.7761  149.9701  151.9735 N.1     1  UNL1       -0.1908
     20 C         140.3629  140.6220  163.6897 C.3     1  UNL1        0.1063
     21 C         139.3354  140.7183  164.7782 C.3     1  UNL1        0.1483
     22 O         137.8923  140.4452  164.4737 O.3     1  UNL1       -0.3786
     23 H         137.3658  140.5503  165.2816 H       1  UNL1        0.2108
     24 C         138.3971  139.0781  167.1083 C.3     1  UNL1        0.0306
     25 C         139.2819  140.2677  167.3364 C.ar    1  UNL1       -0.0238
     26 C         139.7510  141.0878  166.1714 C.ar    1  UNL1        0.0015
     27 C         140.6358  142.2774  166.3994 C.ar    1  UNL1       -0.0020
     28 C         141.0515  142.6469  167.7925 C.ar    1  UNL1        0.0060
     29 C         140.5823  141.8268  168.9575 C.ar    1  UNL1        0.0748
     30 C         139.6975  140.6372  168.7294 C.ar    1  UNL1        0.0233
     31 C         139.3947  140.0222  170.0636 C.3     1  UNL1        0.2352
     32 O         140.0923  140.8316  171.1163 O.3     1  UNL1       -0.4404
     33 C         140.8263  141.9469  170.4327 C.2     1  UNL1        0.3413
     34 O         141.6582  142.9979  171.1059 O.2     1  UNL1       -0.2449
@<TRIPOS>BOND
     1    24    25    1
     2    25    26   ar
     3    26    21    1
     4    21    22    1
     5    21    20    1
     6    20     1    1
     7     1     2    1
     8     2     3    1
     9     3     4    1
    10     4     5    1
    11     5     6    1
    12     4     7    1
    13     7     8    1
    14     8     9    1
    15     9    12    1
    16    12    13   ar
    17    13    14   ar
    18    14    15   ar
    19    15    18    1
    20    18    19    3
    21    15    16   ar
    22    16    17   ar
    23     9    10    1
    24    10    11    1
    25    26    27   ar
    26    27    28   ar
    27    28    29   ar
    28    29    30   ar
    29    30    31    1
    30    31    32    1
    31    32    33    1
    32    33    34    2
    33    30    25   ar
    34     6     1    1
    35    17    12   ar
    36    33    29    1
    37    11     4    1
    38    22    23    1
@<TRIPOS>MOLECULE
*****
 34 38 0 0 0
SMALL
GASTEIGER

@<TRIPOS>ATOM
      1 N         140.5201  144.7166  163.0043 N.3     1  UNL1       -0.2704
      2 C         140.1406  145.1824  161.6299 C.3     1  UNL1        0.0722
      3 C         140.9674  144.7774  160.4458 C.3     1  UNL1        0.0175
      4 C         142.1738  143.9065  160.6360 C.3     1  UNL1        0.0060
      5 C         142.5534  143.4407  162.0103 C.3     1  UNL1        0.0175
      6 C         141.7265  143.8457  163.1945 C.3     1  UNL1        0.0722
      7 C         141.7942  144.3724  159.2615 C.3     1  UNL1        0.0216
      8 C         142.6211  143.9673  158.0774 C.3     1  UNL1        0.0922
      9 N         143.8275  143.0965  158.2676 N.pl3   1  UNL1       -0.2932
     10 C         144.2070  142.6306  159.6419 C.3     1  UNL1        0.0922
     11 C         143.3802  143.0357  160.8262 C.3     1  UNL1        0.0216
     12 C         144.6543  142.6915  157.0833 C.ar    1  UNL1        0.1317
     13 C         144.0092  142.5269  155.7392 C.ar    1  UNL1        0.0350
     14 C         144.8360  142.1219  154.5551 C.ar    1  UNL1        0.0147
     15 C         146.3080  141.8814  154.7150 C.ar    1  UNL1        0.0877
     16 C         146.9531  142.0460  156.0592 C.ar    1  UNL1        0.1105
     17 N         146.1262  142.4510  157.2433 N.ar    1  UNL1       -0.2285
     18 C         147.1348  141.4764  153.5308 C.1     1  UNL1        0.1020
     19 N         147.9616  141.0715  152.3466 N.1     1  UNL1       -0.1908
     20 C         139.6933  145.1216  164.1885 C.3     1  UNL1        0.1063
     21 C         138.5641  144.2482  164.6488 C.3     1  UNL1        0.1483
     22 O         137.5457  144.7839  165.6110 O.3     1  UNL1       -0.3786
     23 H         136.8896  144.0959  165.8038 H       1  UNL1        0.2108
     24 C         139.9379  142.0209  166.1159 C.3     1  UNL1        0.0306
     25 C         139.1402  141.7254  164.8805 C.ar    1  UNL1       -0.0238
     26 C         138.4533  142.8389  164.1470 C.ar    1  UNL1        0.0015
     27 C         137.6555  142.5433  162.9116 C.ar    1  UNL1       -0.0020
     28 C         137.5446  141.1342  162.4097 C.ar    1  UNL1        0.0060
     29 C         138.2316  140.0206  163.1432 C.ar    1  UNL1        0.0748
     30 C         139.0293  140.3162  164.3786 C.ar    1  UNL1        0.0233
     31 C         139.5922  139.0223  164.8875 C.3     1  UNL1        0.2352
     32 O         139.1423  137.9270  163.9667 O.3     1  UNL1       -0.4404
     33 C         138.3014  138.5440  162.8886 C.2     1  UNL1        0.3413
     34 O         137.6454  137.8128  161.7550 O.2     1  UNL1       -0.2449
@<TRIPOS>BOND
     1    24    25    1
     2    25    26   ar
     3    26    21    1
     4    21    22    1
     5    21    20    1
     6    20     1    1
     7     1     2    1
     8     2     3    1
     9     3     4    1
    10     4     5    1
    11     5     6    1
    12     4     7    1
    13     7     8    1
    14     8     9    1
    15     9    12    1
    16    12    13   ar
    17    13    14   ar
    18    14    15   ar
    19    15    18    1
    20    18    19    3
    21    15    16   ar
    22    16    17   ar
    23     9    10    1
    24    10    11    1
    25    26    27   ar
    26    27    28   ar
    27    28    29   ar
    28    29    30   ar
    29    30    31    1
    30    31    32    1
    31    32    33    1
    32    33    34    2
    33    30    25   ar
    34     6     1    1
    35    17    12   ar
    36    33    29    1
    37    11     4    1
    38    22    23    1
@<TRIPOS>MOLECULE
*****
 34 38 0 0 0
SMALL
GASTEIGER

@<TRIPOS>ATOM
      1 N         140.6354  139.2696  163.4437 N.3     1  UNL1       -0.2704
      2 C         141.5349  140.4699  163.4274 C.3     1  UNL1        0.0722
      3 C         142.3526  140.7777  162.2082 C.3     1  UNL1        0.0175
      4 C         142.2709  139.8853  161.0053 C.3     1  UNL1        0.0060
      5 C         141.3714  138.6850  161.0217 C.3     1  UNL1        0.0175
      6 C         140.5537  138.3772  162.2409 C.3     1  UNL1        0.0722
      7 C         143.1704  141.0856  160.9890 C.3     1  UNL1        0.0216
      8 C         143.9882  141.3934  159.7698 C.3     1  UNL1        0.0922
      9 N         143.9064  140.5010  158.5669 N.pl3   1  UNL1       -0.2932
     10 C         143.0069  139.3007  158.5832 C.3     1  UNL1        0.0922
     11 C         142.1891  138.9928  159.8025 C.3     1  UNL1        0.0216
     12 C         144.7242  140.8088  157.3477 C.ar    1  UNL1        0.1317
     13 C         144.5496  139.9923  156.1016 C.ar    1  UNL1        0.0350
     14 C         145.3674  140.3002  154.8824 C.ar    1  UNL1        0.0147
     15 C         146.3598  141.4246  154.9094 C.ar    1  UNL1        0.0877
     16 C         146.5344  142.2412  156.1554 C.ar    1  UNL1        0.1105
     17 N         145.7167  141.9333  157.3746 N.ar    1  UNL1       -0.2285
     18 C         147.1776  141.7325  153.6901 C.1     1  UNL1        0.1020
     19 N         147.9953  142.0404  152.4709 N.1     1  UNL1       -0.1908
     20 C         139.8176  138.9617  164.6630 C.3     1  UNL1        0.1063
     21 C         139.0482  140.0536  165.3454 C.3     1  UNL1        0.1483
     22 O         137.9156  140.7313  164.6327 O.3     1  UNL1       -0.3786
     23 H         137.5285  141.4076  165.2103 H       1  UNL1        0.2108
     24 C         140.4541  142.6614  165.8178 C.3     1  UNL1        0.0306
     25 C         140.1143  141.7718  166.9768 C.ar    1  UNL1       -0.0238
     26 C         139.4114  140.4680  166.7406 C.ar    1  UNL1        0.0015
     27 C         139.0717  139.5784  167.8995 C.ar    1  UNL1       -0.0020
     28 C         139.4348  139.9926  169.2947 C.ar    1  UNL1        0.0060
     29 C         140.1377  141.2965  169.5309 C.ar    1  UNL1        0.0748
     30 C         140.4775  142.1861  168.3719 C.ar    1  UNL1        0.0233
     31 C         141.1679  143.4044  168.9096 C.3     1  UNL1        0.2352
     32 O         141.2548  143.2678  170.4008 O.3     1  UNL1       -0.4404
     33 C         140.6181  141.9650  170.7848 C.2     1  UNL1        0.3413
     34 O         140.4852  141.4255  172.1780 O.2     1  UNL1       -0.2449
@<TRIPOS>BOND
     1    24    25    1
     2    25    26   ar
     3    26    21    1
     4    21    22    1
     5    21    20    1
     6    20     1    1
     7     1     2    1
     8     2     3    1
     9     3     4    1
    10     4     5    1
    11     5     6    1
    12     4     7    1
    13     7     8    1
    14     8     9    1
    15     9    12    1
    16    12    13   ar
    17    13    14   ar
    18    14    15   ar
    19    15    18    1
    20    18    19    3
    21    15    16   ar
    22    16    17   ar
    23     9    10    1
    24    10    11    1
    25    26    27   ar
    26    27    28   ar
    27    28    29   ar
    28    29    30   ar
    29    30    31    1
    30    31    32    1
    31    32    33    1
    32    33    34    2
    33    30    25   ar
    34     6     1    1
    35    17    12   ar
    36    33    29    1
    37    11     4    1
    38    22    23    1
