@<TRIPOS>MOLECULE
*****
 30 33 0 0 0
SMALL
GASTEIGER

@<TRIPOS>ATOM
      1 C         140.6449  144.3937  158.8328 C.ar    1  UNL1        0.0690
      2 C         141.0816  145.5405  157.9701 C.ar    1  UNL1        0.0275
      3 C         140.2272  145.5445  156.7372 C.ar    1  UNL1        0.1142
      4 N         139.2625  144.4003  156.8380 N.ar    1  UNL1       -0.3223
      5 C         139.5207  143.6890  158.1331 C.ar    1  UNL1        0.0717
      6 C         138.6988  142.4916  158.5080 C.3     1  UNL1        0.1857
      7 O         137.6186  142.0055  157.5878 O.3     1  UNL1       -0.3454
      8 C         137.3604  142.7167  156.2926 C.3     1  UNL1        0.1671
      9 C         138.1824  143.9141  155.9177 C.3     1  UNL1        0.1379
     10 C         140.3210  146.5213  155.6027 C.2     1  UNL1        0.2649
     11 O         141.1053  146.1701  154.3734 O.2     1  UNL1       -0.2683
     12 N         139.6303  147.8496  155.6976 N.am    1  UNL1       -0.2765
     13 C         138.8141  148.3381  156.8574 C.3     1  UNL1        0.0937
     14 C         138.3140  149.7128  156.5259 C.3     1  UNL1        0.0232
     15 C         138.8210  150.0740  155.1612 C.3     1  UNL1        0.0216
     16 C         139.6345  148.9224  154.6493 C.3     1  UNL1        0.0758
     17 C         140.3301  148.8554  153.3220 C.3     1  UNL1        0.0215
     18 N         141.6052  145.0862  161.1455 N.am    1  UNL1       -0.2987
     19 C         141.2298  144.0176  160.1619 C.2     1  UNL1        0.2472
     20 O         141.4394  142.5732  160.5074 O.2     1  UNL1       -0.2701
     21 H         141.4677  146.0343  160.9188 H       1  UNL1        0.1500
     22 C         142.1901  144.7101  162.4746 C.3     1  UNL1        0.0943
     23 C         141.2867  144.3566  163.6187 C.ar    1  UNL1       -0.0045
     24 C         139.9675  145.0531  163.7754 C.ar    1  UNL1       -0.0027
     25 C         139.0640  144.6997  164.9195 C.ar    1  UNL1       -0.0003
     26 C         139.4798  143.6497  165.9067 C.ar    1  UNL1       -0.0000
     27 C         140.7990  142.9531  165.7499 C.ar    1  UNL1       -0.0003
     28 C         141.7024  143.3066  164.6059 C.ar    1  UNL1       -0.0027
     29 C         144.4735  143.5018  162.1988 C.3     1  UNL1        0.0021
     30 C         143.6785  144.6875  162.6596 C.3     1  UNL1        0.0241
@<TRIPOS>BOND
     1    29    30    1
     2    22    30    1
     3    22    18    1
     4    18    19   am
     5    19    20    2
     6    19     1    1
     7     1     2   ar
     8     2     3   ar
     9     3    10    1
    10    10    11    2
    11    10    12   am
    12    12    13    1
    13    13    14    1
    14    14    15    1
    15    15    16    1
    16    16    17    1
    17     3     4   ar
    18     4     5   ar
    19     5     6    1
    20     6     7    1
    21     7     8    1
    22     8     9    1
    23    22    23    1
    24    23    24   ar
    25    24    25   ar
    26    25    26   ar
    27    26    27   ar
    28    27    28   ar
    29     5     1   ar
    30    28    23   ar
    31    16    12    1
    32     9     4    1
    33    18    21    1
@<TRIPOS>MOLECULE
*****
 30 33 0 0 0
SMALL
GASTEIGER

@<TRIPOS>ATOM
      1 C         142.6754  143.5056  159.1875 C.ar    1  UNL1        0.0690
      2 C         143.5734  142.5584  158.4484 C.ar    1  UNL1        0.0275
      3 C         143.5109  142.9032  156.9899 C.ar    1  UNL1        0.1142
      4 N         142.5743  144.0636  156.8277 N.ar    1  UNL1       -0.3223
      5 C         142.0579  144.4359  158.1859 C.ar    1  UNL1        0.0717
      6 C         141.0921  145.5738  158.3351 C.3     1  UNL1        0.1857
      7 O         140.6428  146.3395  157.1261 O.3     1  UNL1       -0.3454
      8 C         141.1591  145.9672  155.7678 C.3     1  UNL1        0.1671
      9 C         142.1249  144.8292  155.6186 C.3     1  UNL1        0.1379
     10 C         144.2545  142.2095  155.8872 C.2     1  UNL1        0.2649
     11 O         143.4994  141.5705  154.7598 O.2     1  UNL1       -0.2683
     12 N         145.7534  142.1549  155.9121 N.am    1  UNL1       -0.2765
     13 C         146.6397  142.7453  156.9684 C.3     1  UNL1        0.0937
     14 C         148.0631  142.4555  156.5941 C.3     1  UNL1        0.0232
     15 C         148.0564  141.6861  155.3066 C.3     1  UNL1        0.0216
     16 C         146.6289  141.5003  154.8850 C.3     1  UNL1        0.0758
     17 C         146.1594  140.7854  153.6528 C.3     1  UNL1        0.0215
     18 N         142.2934  144.8261  161.3922 N.am    1  UNL1       -0.2987
     19 C         142.4368  143.5201  160.6683 C.2     1  UNL1        0.2472
     20 O         142.3415  142.2287  161.4254 O.2     1  UNL1       -0.2701
     21 H         142.3559  145.6737  160.8954 H       1  UNL1        0.1500
     22 C         142.0548  144.8406  162.8731 C.3     1  UNL1        0.0943
     23 C         140.6807  144.5770  163.4139 C.ar    1  UNL1       -0.0045
     24 C         140.5106  144.0749  164.8172 C.ar    1  UNL1       -0.0027
     25 C         139.1366  143.8114  165.3580 C.ar    1  UNL1       -0.0003
     26 C         137.9327  144.0498  164.4957 C.ar    1  UNL1       -0.0000
     27 C         138.1028  144.5519  163.0924 C.ar    1  UNL1       -0.0003
     28 C         139.4768  144.8155  162.5516 C.ar    1  UNL1       -0.0027
     29 C         144.0977  144.0044  164.2430 C.3     1  UNL1        0.0021
     30 C         143.1902  145.1186  163.8129 C.3     1  UNL1        0.0241
@<TRIPOS>BOND
     1    29    30    1
     2    22    30    1
     3    22    18    1
     4    18    19   am
     5    19    20    2
     6    19     1    1
     7     1     2   ar
     8     2     3   ar
     9     3    10    1
    10    10    11    2
    11    10    12   am
    12    12    13    1
    13    13    14    1
    14    14    15    1
    15    15    16    1
    16    16    17    1
    17     3     4   ar
    18     4     5   ar
    19     5     6    1
    20     6     7    1
    21     7     8    1
    22     8     9    1
    23    22    23    1
    24    23    24   ar
    25    24    25   ar
    26    25    26   ar
    27    26    27   ar
    28    27    28   ar
    29     5     1   ar
    30    28    23   ar
    31    16    12    1
    32     9     4    1
    33    18    21    1
@<TRIPOS>MOLECULE
*****
 30 33 0 0 0
SMALL
GASTEIGER

@<TRIPOS>ATOM
      1 C         144.1401  141.4134  160.6731 C.ar    1  UNL1        0.0690
      2 C         144.2871  142.3639  159.5221 C.ar    1  UNL1        0.0275
      3 C         143.8938  141.6390  158.2692 C.ar    1  UNL1        0.1142
      4 N         143.5037  140.2404  158.6459 N.ar    1  UNL1       -0.3223
      5 C         143.6560  140.1010  160.1316 C.ar    1  UNL1        0.0717
      6 C         143.3341  138.7971  160.7995 C.3     1  UNL1        0.1857
      7 O         142.8600  137.6325  159.9816 O.3     1  UNL1       -0.3454
      8 C         142.7077  137.7719  158.4959 C.3     1  UNL1        0.1671
      9 C         143.0296  139.0759  157.8280 C.3     1  UNL1        0.1379
     10 C         143.8910  142.2119  156.8829 C.2     1  UNL1        0.2649
     11 O         142.5940  142.5830  156.2273 O.2     1  UNL1       -0.2683
     12 N         145.1855  142.4139  156.1522 N.am    1  UNL1       -0.2765
     13 C         146.5534  142.0916  156.6765 C.3     1  UNL1        0.0937
     14 C         147.5525  142.4521  155.6173 C.3     1  UNL1        0.0232
     15 C         146.8021  142.9971  154.4385 C.3     1  UNL1        0.0216
     16 C         145.3391  142.9735  154.7691 C.3     1  UNL1        0.0758
     17 C         144.2254  143.4294  153.8737 C.3     1  UNL1        0.0215
     18 N         143.3057  142.0894  163.0390 N.am    1  UNL1       -0.2987
     19 C         144.4270  141.7212  162.1129 C.2     1  UNL1        0.2472
     20 O         145.8348  141.6610  162.6267 O.2     1  UNL1       -0.2701
     21 H         142.3816  142.1289  162.7017 H       1  UNL1        0.1500
     22 C         143.5925  142.3972  164.4788 C.3     1  UNL1        0.0943
     23 C         143.3159  141.3688  165.5351 C.ar    1  UNL1       -0.0045
     24 C         142.8542  141.7973  166.8964 C.ar    1  UNL1       -0.0027
     25 C         142.5776  140.7689  167.9528 C.ar    1  UNL1       -0.0003
     26 C         142.7627  139.3120  167.6478 C.ar    1  UNL1       -0.0000
     27 C         143.2244  138.8834  166.2865 C.ar    1  UNL1       -0.0003
     28 C         143.5010  139.9118  165.2301 C.ar    1  UNL1       -0.0027
     29 C         143.7540  144.9627  164.1023 C.3     1  UNL1        0.0021
     30 C         144.1559  143.7334  164.8621 C.3     1  UNL1        0.0241
@<TRIPOS>BOND
     1    29    30    1
     2    22    30    1
     3    22    18    1
     4    18    19   am
     5    19    20    2
     6    19     1    1
     7     1     2   ar
     8     2     3   ar
     9     3    10    1
    10    10    11    2
    11    10    12   am
    12    12    13    1
    13    13    14    1
    14    14    15    1
    15    15    16    1
    16    16    17    1
    17     3     4   ar
    18     4     5   ar
    19     5     6    1
    20     6     7    1
    21     7     8    1
    22     8     9    1
    23    22    23    1
    24    23    24   ar
    25    24    25   ar
    26    25    26   ar
    27    26    27   ar
    28    27    28   ar
    29     5     1   ar
    30    28    23   ar
    31    16    12    1
    32     9     4    1
    33    18    21    1
@<TRIPOS>MOLECULE
*****
 30 33 0 0 0
SMALL
GASTEIGER

@<TRIPOS>ATOM
      1 C         139.9869  144.3420  159.7064 C.ar    1  UNL1        0.0690
      2 C         140.5659  145.2527  158.6646 C.ar    1  UNL1        0.0275
      3 C         140.2017  144.7052  157.3164 C.ar    1  UNL1        0.1142
      4 N         139.3976  143.4562  157.5250 N.ar    1  UNL1       -0.3223
      5 C         139.2649  143.2318  159.0022 C.ar    1  UNL1        0.0717
      6 C         138.5037  142.0454  159.5151 C.3     1  UNL1        0.1857
      7 O         137.8752  141.0836  158.5509 O.3     1  UNL1       -0.3454
      8 C         138.0080  141.3080  157.0738 C.3     1  UNL1        0.1671
      9 C         138.7692  142.4943  156.5608 C.3     1  UNL1        0.1379
     10 C         140.5759  145.3019  155.9920 C.2     1  UNL1        0.2649
     11 O         141.5056  144.5658  155.0736 O.2     1  UNL1       -0.2683
     12 N         140.0202  146.6348  155.5861 N.am    1  UNL1       -0.2765
     13 C         139.0845  147.4833  156.3951 C.3     1  UNL1        0.0937
     14 C         138.7887  148.7260  155.6089 C.3     1  UNL1        0.0232
     15 C         139.5415  148.6456  154.3140 C.3     1  UNL1        0.0216
     16 C         140.3027  147.3531  154.2999 C.3     1  UNL1        0.0758
     17 C         141.1903  146.8647  153.1939 C.3     1  UNL1        0.0215
     18 N         140.2465  143.3076  162.0756 N.am    1  UNL1       -0.2987
     19 C         140.1086  144.5118  161.1918 C.2     1  UNL1        0.2472
     20 O         140.0924  145.8857  161.7935 O.2     1  UNL1       -0.2701
     21 H         140.2571  142.4058  161.6807 H       1  UNL1        0.1500
     22 C         140.3681  143.4774  163.5610 C.3     1  UNL1        0.0943
     23 C         141.7236  143.5340  164.2009 C.ar    1  UNL1       -0.0045
     24 C         142.1024  142.5265  165.2456 C.ar    1  UNL1       -0.0027
     25 C         143.4579  142.5830  165.8855 C.ar    1  UNL1       -0.0003
     26 C         144.4346  143.6471  165.4807 C.ar    1  UNL1       -0.0000
     27 C         144.0557  144.6546  164.4360 C.ar    1  UNL1       -0.0003
     28 C         142.7002  144.5980  163.7961 C.ar    1  UNL1       -0.0027
     29 C         138.8295  144.8742  165.1203 C.3     1  UNL1        0.0021
     30 C         139.1343  143.5907  164.4064 C.3     1  UNL1        0.0241
@<TRIPOS>BOND
     1    29    30    1
     2    22    30    1
     3    22    18    1
     4    18    19   am
     5    19    20    2
     6    19     1    1
     7     1     2   ar
     8     2     3   ar
     9     3    10    1
    10    10    11    2
    11    10    12   am
    12    12    13    1
    13    13    14    1
    14    14    15    1
    15    15    16    1
    16    16    17    1
    17     3     4   ar
    18     4     5   ar
    19     5     6    1
    20     6     7    1
    21     7     8    1
    22     8     9    1
    23    22    23    1
    24    23    24   ar
    25    24    25   ar
    26    25    26   ar
    27    26    27   ar
    28    27    28   ar
    29     5     1   ar
    30    28    23   ar
    31    16    12    1
    32     9     4    1
    33    18    21    1
@<TRIPOS>MOLECULE
*****
 30 33 0 0 0
SMALL
GASTEIGER

@<TRIPOS>ATOM
      1 C         142.1799  139.8036  163.7027 C.ar    1  UNL1        0.0690
      2 C         141.7696  138.8546  162.6159 C.ar    1  UNL1        0.0275
      3 C         142.4008  139.3154  161.3356 C.ar    1  UNL1        0.1142
      4 N         143.2012  140.5491  161.6311 N.ar    1  UNL1       -0.3223
      5 C         143.0646  140.8508  163.0941 C.ar    1  UNL1        0.0717
      6 C         143.7636  142.0402  163.6830 C.3     1  UNL1        0.1857
      7 O         144.5990  142.9278  162.8089 O.3     1  UNL1       -0.3454
      8 C         144.7356  142.6261  161.3459 C.3     1  UNL1        0.1671
      9 C         144.0367  141.4367  160.7570 C.3     1  UNL1        0.1379
     10 C         142.2570  138.6578  159.9951 C.2     1  UNL1        0.2649
     11 O         143.2999  137.6911  159.5181 O.2     1  UNL1       -0.2683
     12 N         141.0700  138.9671  159.1315 N.am    1  UNL1       -0.2765
     13 C         139.9524  139.9075  159.4729 C.3     1  UNL1        0.0937
     14 C         138.9840  139.9118  158.3274 C.3     1  UNL1        0.0232
     15 C         139.5031  138.9740  157.2781 C.3     1  UNL1        0.0216
     16 C         140.7923  138.3902  157.7751 C.3     1  UNL1        0.0758
     17 C         141.6528  137.4028  157.0439 C.3     1  UNL1        0.0215
     18 N         140.8415  140.7412  165.7226 N.am    1  UNL1       -0.2987
     19 C         141.7762  139.7200  165.1450 C.2     1  UNL1        0.2472
     20 O         142.3072  138.6154  166.0096 O.2     1  UNL1       -0.2701
     21 H         140.4930  141.4663  165.1551 H       1  UNL1        0.1500
     22 C         140.4379  140.6577  167.1649 C.3     1  UNL1        0.0943
     23 C         141.1776  141.4547  168.1981 C.ar    1  UNL1       -0.0045
     24 C         140.5055  142.6122  168.8752 C.ar    1  UNL1       -0.0027
     25 C         141.2452  143.4093  169.9084 C.ar    1  UNL1       -0.0003
     26 C         142.6570  143.0488  170.2646 C.ar    1  UNL1       -0.0000
     27 C         143.3291  141.8913  169.5875 C.ar    1  UNL1       -0.0003
     28 C         142.5894  141.0943  168.5543 C.ar    1  UNL1       -0.0027
     29 C         138.4092  139.1643  166.5295 C.3     1  UNL1        0.0021
     30 C         139.2946  139.7770  167.5738 C.3     1  UNL1        0.0241
@<TRIPOS>BOND
     1    29    30    1
     2    22    30    1
     3    22    18    1
     4    18    19   am
     5    19    20    2
     6    19     1    1
     7     1     2   ar
     8     2     3   ar
     9     3    10    1
    10    10    11    2
    11    10    12   am
    12    12    13    1
    13    13    14    1
    14    14    15    1
    15    15    16    1
    16    16    17    1
    17     3     4   ar
    18     4     5   ar
    19     5     6    1
    20     6     7    1
    21     7     8    1
    22     8     9    1
    23    22    23    1
    24    23    24   ar
    25    24    25   ar
    26    25    26   ar
    27    26    27   ar
    28    27    28   ar
    29     5     1   ar
    30    28    23   ar
    31    16    12    1
    32     9     4    1
    33    18    21    1
@<TRIPOS>MOLECULE
*****
 30 33 0 0 0
SMALL
GASTEIGER

@<TRIPOS>ATOM
      1 C         142.2694  137.8875  158.1247 C.ar    1  UNL1        0.0690
      2 C         142.9740  138.1905  159.4137 C.ar    1  UNL1        0.0275
      3 C         142.0868  139.0851  160.2277 C.ar    1  UNL1        0.1142
      4 N         140.8339  139.3350  159.4417 N.ar    1  UNL1       -0.3223
      5 C         140.9467  138.5948  158.1419 C.ar    1  UNL1        0.0717
      6 C         139.8305  138.6605  157.1421 C.3     1  UNL1        0.1857
      7 O         138.6015  139.4664  157.4420 O.3     1  UNL1       -0.3454
      8 C         138.4887  140.2066  158.7418 C.3     1  UNL1        0.1671
      9 C         139.6049  140.1409  159.7416 C.3     1  UNL1        0.1379
     10 C         142.3979  139.6336  161.5887 C.2     1  UNL1        0.2649
     11 O         143.0859  140.9595  161.7238 O.2     1  UNL1       -0.2683
     12 N         142.0210  138.8559  162.8149 N.am    1  UNL1       -0.2765
     13 C         141.3328  137.5233  162.8367 C.3     1  UNL1        0.0937
     14 C         141.1525  137.1181  164.2697 C.3     1  UNL1        0.0232
     15 C         141.7293  138.2003  165.1334 C.3     1  UNL1        0.0216
     16 C         142.2661  139.2743  164.2343 C.3     1  UNL1        0.0758
     17 C         142.9311  140.5439  164.6769 C.3     1  UNL1        0.0215
     18 N         142.0766  135.7661  156.6371 N.am    1  UNL1       -0.2987
     19 C         142.7951  137.0280  157.0134 C.2     1  UNL1        0.2472
     20 O         144.0391  137.4304  156.2783 O.2     1  UNL1       -0.2701
     21 H         141.2601  135.5020  157.1195 H       1  UNL1        0.1500
     22 C         142.6023  134.9067  155.5258 C.3     1  UNL1        0.0943
     23 C         143.3605  133.6518  155.8426 C.ar    1  UNL1       -0.0045
     24 C         144.1169  133.5380  157.1330 C.ar    1  UNL1       -0.0027
     25 C         144.8751  132.2832  157.4498 C.ar    1  UNL1       -0.0003
     26 C         144.8770  131.1421  156.4763 C.ar    1  UNL1       -0.0000
     27 C         144.1207  131.2558  155.1859 C.ar    1  UNL1       -0.0003
     28 C         143.3625  132.5107  154.8690 C.ar    1  UNL1       -0.0027
     29 C         140.9717  135.3841  153.5604 C.3     1  UNL1        0.0021
     30 C         142.3698  135.3021  154.0977 C.3     1  UNL1        0.0241
@<TRIPOS>BOND
     1    29    30    1
     2    22    30    1
     3    22    18    1
     4    18    19   am
     5    19    20    2
     6    19     1    1
     7     1     2   ar
     8     2     3   ar
     9     3    10    1
    10    10    11    2
    11    10    12   am
    12    12    13    1
    13    13    14    1
    14    14    15    1
    15    15    16    1
    16    16    17    1
    17     3     4   ar
    18     4     5   ar
    19     5     6    1
    20     6     7    1
    21     7     8    1
    22     8     9    1
    23    22    23    1
    24    23    24   ar
    25    24    25   ar
    26    25    26   ar
    27    26    27   ar
    28    27    28   ar
    29     5     1   ar
    30    28    23   ar
    31    16    12    1
    32     9     4    1
    33    18    21    1
@<TRIPOS>MOLECULE
*****
 30 33 0 0 0
SMALL
GASTEIGER

@<TRIPOS>ATOM
      1 C         141.8236  141.9373  163.5716 C.ar    1  UNL1        0.0690
      2 C         142.8003  141.4969  162.5218 C.ar    1  UNL1        0.0275
      3 C         142.7665  142.5002  161.4072 C.ar    1  UNL1        0.1142
      4 N         141.7690  143.5606  161.7682 N.ar    1  UNL1       -0.3223
      5 C         141.1862  143.2128  163.1058 C.ar    1  UNL1        0.0717
      6 C         140.1504  144.1023  163.7269 C.3     1  UNL1        0.1857
      7 O         139.6975  145.3398  163.0104 O.3     1  UNL1       -0.3454
      8 C         140.2802  145.6877  161.6727 C.3     1  UNL1        0.1671
      9 C         141.3160  144.7981  161.0516 C.3     1  UNL1        0.1379
     10 C         143.5864  142.4516  160.1521 C.2     1  UNL1        0.2649
     11 O         145.0635  142.7059  160.2107 O.2     1  UNL1       -0.2683
     12 N         142.9291  142.1486  158.8381 N.am    1  UNL1       -0.2765
     13 C         141.4699  141.8744  158.6247 C.3     1  UNL1        0.0937
     14 C         141.2546  141.6230  157.1617 C.3     1  UNL1        0.0232
     15 C         142.5807  141.7418  156.4709 C.3     1  UNL1        0.0216
     16 C         143.6157  142.0666  157.5070 C.3     1  UNL1        0.0758
     17 C         145.0800  142.2732  157.2560 C.3     1  UNL1        0.0215
     18 N         142.5701  141.1919  165.9459 N.am    1  UNL1       -0.2987
     19 C         141.5349  141.2269  164.8608 C.2     1  UNL1        0.2472
     20 O         140.2113  140.5517  165.0650 O.2     1  UNL1       -0.2701
     21 H         143.4389  141.6351  165.8119 H       1  UNL1        0.1500
     22 C         142.2814  140.4815  167.2351 C.3     1  UNL1        0.0943
     23 C         141.4311  141.1405  168.2804 C.ar    1  UNL1       -0.0045
     24 C         140.3070  140.3814  168.9209 C.ar    1  UNL1       -0.0027
     25 C         139.4566  141.0403  169.9662 C.ar    1  UNL1       -0.0003
     26 C         139.7304  142.4584  170.3711 C.ar    1  UNL1       -0.0000
     27 C         140.8545  143.2176  169.7306 C.ar    1  UNL1       -0.0003
     28 C         141.7048  142.5586  168.6853 C.ar    1  UNL1       -0.0027
     29 C         143.5466  138.3825  166.3733 C.3     1  UNL1        0.0021
     30 C         142.8431  139.1123  167.4790 C.3     1  UNL1        0.0241
@<TRIPOS>BOND
     1    29    30    1
     2    22    30    1
     3    22    18    1
     4    18    19   am
     5    19    20    2
     6    19     1    1
     7     1     2   ar
     8     2     3   ar
     9     3    10    1
    10    10    11    2
    11    10    12   am
    12    12    13    1
    13    13    14    1
    14    14    15    1
    15    15    16    1
    16    16    17    1
    17     3     4   ar
    18     4     5   ar
    19     5     6    1
    20     6     7    1
    21     7     8    1
    22     8     9    1
    23    22    23    1
    24    23    24   ar
    25    24    25   ar
    26    25    26   ar
    27    26    27   ar
    28    27    28   ar
    29     5     1   ar
    30    28    23   ar
    31    16    12    1
    32     9     4    1
    33    18    21    1
@<TRIPOS>MOLECULE
*****
 30 33 0 0 0
SMALL
GASTEIGER

@<TRIPOS>ATOM
      1 C         144.5876  141.2704  157.6558 C.ar    1  UNL1        0.0690
      2 C         144.7347  142.4227  158.6048 C.ar    1  UNL1        0.0275
      3 C         143.8033  142.1949  159.7583 C.ar    1  UNL1        0.1142
      4 N         143.0805  140.9019  159.5222 N.ar    1  UNL1       -0.3223
      5 C         143.5653  140.3305  158.2228 C.ar    1  UNL1        0.0717
      6 C         143.0132  139.0282  157.7237 C.3     1  UNL1        0.1857
      7 O         141.9763  138.2973  158.5240 O.3     1  UNL1       -0.3454
      8 C         141.4915  138.8687  159.8235 C.3     1  UNL1        0.1671
      9 C         142.0437  140.1709  160.3226 C.3     1  UNL1        0.1379
     10 C         143.6257  143.1010  160.9404 C.2     1  UNL1        0.2649
     11 O         142.8028  144.3485  160.8123 O.2     1  UNL1       -0.2683
     12 N         144.2713  142.7597  162.2508 N.am    1  UNL1       -0.2765
     13 C         145.1180  141.5531  162.5286 C.3     1  UNL1        0.0937
     14 C         145.5534  141.6128  163.9628 C.3     1  UNL1        0.0232
     15 C         144.9758  142.8561  164.5713 C.3     1  UNL1        0.0216
     16 C         144.1834  143.5650  163.5132 C.3     1  UNL1        0.0758
     17 C         143.4345  144.8530  163.6870 C.3     1  UNL1        0.0215
     18 N         145.6708  142.2827  155.5222 N.am    1  UNL1       -0.2987
     19 C         145.3321  141.0897  156.3662 C.2     1  UNL1        0.2472
     20 O         145.7380  139.7162  155.9205 O.2     1  UNL1       -0.2701
     21 H         145.4044  143.1842  155.8147 H       1  UNL1        0.1500
     22 C         146.4153  142.1020  154.2326 C.3     1  UNL1        0.0943
     23 C         147.9127  142.1889  154.2125 C.ar    1  UNL1       -0.0045
     24 C         148.6094  142.8647  153.0689 C.ar    1  UNL1       -0.0027
     25 C         150.1068  142.9516  153.0488 C.ar    1  UNL1       -0.0003
     26 C         150.9073  142.3626  154.1723 C.ar    1  UNL1       -0.0000
     27 C         150.2105  141.6867  155.3159 C.ar    1  UNL1       -0.0003
     28 C         148.7132  141.5999  155.3360 C.ar    1  UNL1       -0.0027
     29 C         145.1255  140.4618  152.6848 C.3     1  UNL1        0.0021
     30 C         145.6624  141.8345  152.9632 C.3     1  UNL1        0.0241
@<TRIPOS>BOND
     1    29    30    1
     2    22    30    1
     3    22    18    1
     4    18    19   am
     5    19    20    2
     6    19     1    1
     7     1     2   ar
     8     2     3   ar
     9     3    10    1
    10    10    11    2
    11    10    12   am
    12    12    13    1
    13    13    14    1
    14    14    15    1
    15    15    16    1
    16    16    17    1
    17     3     4   ar
    18     4     5   ar
    19     5     6    1
    20     6     7    1
    21     7     8    1
    22     8     9    1
    23    22    23    1
    24    23    24   ar
    25    24    25   ar
    26    25    26   ar
    27    26    27   ar
    28    27    28   ar
    29     5     1   ar
    30    28    23   ar
    31    16    12    1
    32     9     4    1
    33    18    21    1
@<TRIPOS>MOLECULE
*****
 30 33 0 0 0
SMALL
GASTEIGER

@<TRIPOS>ATOM
      1 C         142.1869  137.6414  158.4327 C.ar    1  UNL1        0.0690
      2 C         142.9404  137.5489  159.7264 C.ar    1  UNL1        0.0275
      3 C         142.1381  138.2513  160.7813 C.ar    1  UNL1        0.1142
      4 N         140.8887  138.7779  160.1397 N.ar    1  UNL1       -0.3223
      5 C         140.9189  138.4010  158.6881 C.ar    1  UNL1        0.0717
      6 C         139.7878  138.7981  157.7865 C.3     1  UNL1        0.1857
      7 O         138.6266  139.5721  158.3364 O.3     1  UNL1       -0.3454
      8 C         138.5965  139.9490  159.7880 C.3     1  UNL1        0.1671
      9 C         139.7275  139.5519  160.6896 C.3     1  UNL1        0.1379
     10 C         142.5184  138.4008  162.2246 C.2     1  UNL1        0.2649
     11 O         141.9085  137.5009  163.2580 O.2     1  UNL1       -0.2683
     12 N         143.5087  139.4504  162.6345 N.am    1  UNL1       -0.2765
     13 C         144.1980  140.4178  161.7185 C.3     1  UNL1        0.0937
     14 C         145.0988  141.2820  162.5501 C.3     1  UNL1        0.0232
     15 C         144.9662  140.8488  163.9800 C.3     1  UNL1        0.0216
     16 C         143.9835  139.7167  164.0322 C.3     1  UNL1        0.0758
     17 C         143.5514  138.9803  165.2654 C.3     1  UNL1        0.0215
     18 N         141.7696  136.0603  156.4138 N.am    1  UNL1       -0.2987
     19 C         142.6245  137.0740  157.1149 C.2     1  UNL1        0.2472
     20 O         143.9169  137.5203  156.4982 O.2     1  UNL1       -0.2701
     21 H         140.9213  135.7674  156.8185 H       1  UNL1        0.1500
     22 C         142.2072  135.4929  155.0960 C.3     1  UNL1        0.0943
     23 C         142.8191  134.1248  155.0345 C.ar    1  UNL1       -0.0045
     24 C         142.4490  133.1868  153.9240 C.ar    1  UNL1       -0.0027
     25 C         143.0609  131.8187  153.8625 C.ar    1  UNL1       -0.0003
     26 C         144.0429  131.3885  154.9116 C.ar    1  UNL1       -0.0000
     27 C         144.4130  132.3265  156.0222 C.ar    1  UNL1       -0.0003
     28 C         143.8011  133.6946  156.0836 C.ar    1  UNL1       -0.0027
     29 C         141.1876  137.5328  153.8514 C.3     1  UNL1        0.0021
     30 C         142.0328  136.2937  153.8397 C.3     1  UNL1        0.0241
@<TRIPOS>BOND
     1    29    30    1
     2    22    30    1
     3    22    18    1
     4    18    19   am
     5    19    20    2
     6    19     1    1
     7     1     2   ar
     8     2     3   ar
     9     3    10    1
    10    10    11    2
    11    10    12   am
    12    12    13    1
    13    13    14    1
    14    14    15    1
    15    15    16    1
    16    16    17    1
    17     3     4   ar
    18     4     5   ar
    19     5     6    1
    20     6     7    1
    21     7     8    1
    22     8     9    1
    23    22    23    1
    24    23    24   ar
    25    24    25   ar
    26    25    26   ar
    27    26    27   ar
    28    27    28   ar
    29     5     1   ar
    30    28    23   ar
    31    16    12    1
    32     9     4    1
    33    18    21    1
