@<TRIPOS>MOLECULE
*****
 28 31 0 0 0
SMALL
GASTEIGER

@<TRIPOS>ATOM
      1 C         142.9527  141.7839  168.2389 C.ar    1  UNL1        0.1281
      2 N         141.9045  140.7118  168.1961 N.ar    1  UNL1       -0.1588
      3 N         141.5322  140.4848  166.7608 N.ar    1  UNL1       -0.2292
      4 C         142.3502  141.4166  165.9167 C.ar    1  UNL1        0.0860
      5 C         142.4091  141.6377  164.4343 C.ar    1  UNL1        0.0339
      6 C         143.3460  142.6617  163.8655 C.ar    1  UNL1        0.0518
      7 C         144.2240  143.4646  164.7790 C.ar    1  UNL1        0.0148
      8 C         144.1651  143.2435  166.2614 C.ar    1  UNL1        0.0048
      9 C         143.2282  142.2195  166.8303 C.ar    1  UNL1        0.0430
     10 C         140.5195  139.4990  166.2580 C.ar    1  UNL1        0.0828
     11 C         139.1173  139.5268  166.7901 C.ar    1  UNL1        0.0191
     12 C         138.1046  138.5410  166.2872 C.ar    1  UNL1        0.0015
     13 C         138.4941  137.5276  165.2523 C.ar    1  UNL1        0.0001
     14 C         139.8963  137.4999  164.7202 C.ar    1  UNL1        0.0015
     15 C         140.9089  138.4856  165.2230 C.ar    1  UNL1        0.0191
     16 N         143.4050  142.8828  162.3830 N.am    1  UNL1       -0.2839
     17 C         142.3486  143.7037  161.7046 C.2     1  UNL1        0.2257
     18 O         141.2332  144.3034  162.5086 O.2     1  UNL1       -0.2748
     19 H         144.1370  142.4892  161.8553 H       1  UNL1        0.1549
     20 C         142.4075  143.9248  160.2222 C.3     1  UNL1        0.0796
     21 C         141.5637  144.9911  159.5888 C.3     1  UNL1        0.0262
     22 C         141.6226  145.2123  158.1063 C.3     1  UNL1        0.0691
     23 N         142.5253  144.3672  157.2573 N.3     1  UNL1       -0.2974
     24 C         143.3691  143.3009  157.8906 C.3     1  UNL1        0.0691
     25 C         143.3102  143.0797  159.3730 C.3     1  UNL1        0.0262
     26 H         143.1641  145.0046  156.7819 H       1  UNL1        0.1232
     27 C         142.8005  143.0846  170.4829 C.3     1  UNL1        0.0757
     28 S         143.6101  142.3253  169.4737 S.3     1  UNL1       -0.0923
@<TRIPOS>BOND
     1    27    28    1
     2    28     1    1
     3     1     2   ar
     4     2     3   ar
     5     3    10    1
     6    10    11   ar
     7    11    12   ar
     8    12    13   ar
     9    13    14   ar
    10    14    15   ar
    11     3     4   ar
    12     4     5   ar
    13     5     6   ar
    14     6    16    1
    15    16    17   am
    16    17    18    2
    17    17    20    1
    18    20    21    1
    19    21    22    1
    20    22    23    1
    21    23    24    1
    22    24    25    1
    23     6     7   ar
    24     7     8   ar
    25     8     9   ar
    26     9     1   ar
    27    15    10   ar
    28     9     4   ar
    29    25    20    1
    30    16    19    1
    31    23    26    1
@<TRIPOS>MOLECULE
*****
 28 31 0 0 0
SMALL
GASTEIGER

@<TRIPOS>ATOM
      1 C         142.0319  140.0139  167.5295 C.ar    1  UNL1        0.1281
      2 N         140.8852  140.9771  167.4447 N.ar    1  UNL1       -0.1588
      3 N         140.7145  141.3690  166.0069 N.ar    1  UNL1       -0.2292
      4 C         141.7557  140.6480  165.2031 C.ar    1  UNL1        0.0860
      5 C         142.0675  140.6459  163.7359 C.ar    1  UNL1        0.0339
      6 C         143.1936  139.8062  163.2098 C.ar    1  UNL1        0.0518
      7 C         144.0079  138.9687  164.1508 C.ar    1  UNL1        0.0148
      8 C         143.6960  138.9708  165.6180 C.ar    1  UNL1        0.0048
      9 C         142.5699  139.8105  166.1442 C.ar    1  UNL1        0.0430
     10 C         139.6835  142.3157  165.4675 C.ar    1  UNL1        0.0828
     11 C         139.7583  143.7761  165.8020 C.ar    1  UNL1        0.0191
     12 C         138.7274  144.7228  165.2626 C.ar    1  UNL1        0.0015
     13 C         137.6217  144.2092  164.3888 C.ar    1  UNL1        0.0001
     14 C         137.5469  142.7489  164.0543 C.ar    1  UNL1        0.0015
     15 C         138.5779  141.8022  164.5937 C.ar    1  UNL1        0.0191
     16 N         143.5055  139.8041  161.7425 N.am    1  UNL1       -0.2839
     17 C         142.7310  138.9180  160.8124 C.2     1  UNL1        0.2257
     18 O         141.6446  138.0342  161.3496 O.2     1  UNL1       -0.2748
     19 H         144.2186  140.3842  161.3900 H       1  UNL1        0.1549
     20 C         143.0429  138.9159  159.3452 C.3     1  UNL1        0.0796
     21 C         142.6761  137.7306  158.5023 C.3     1  UNL1        0.0262
     22 C         142.9880  137.7284  157.0350 C.3     1  UNL1        0.0691
     23 N         143.6666  138.9115  156.4108 N.3     1  UNL1       -0.2974
     24 C         144.0334  140.0968  157.2538 C.3     1  UNL1        0.0691
     25 C         143.7215  140.0990  158.7209 C.3     1  UNL1        0.0262
     26 H         143.0466  139.2530  155.6764 H       1  UNL1        0.1232
     27 C         141.7656  139.4657  170.0551 C.3     1  UNL1        0.0757
     28 S         142.5498  139.3675  168.7801 S.3     1  UNL1       -0.0923
@<TRIPOS>BOND
     1    27    28    1
     2    28     1    1
     3     1     2   ar
     4     2     3   ar
     5     3    10    1
     6    10    11   ar
     7    11    12   ar
     8    12    13   ar
     9    13    14   ar
    10    14    15   ar
    11     3     4   ar
    12     4     5   ar
    13     5     6   ar
    14     6    16    1
    15    16    17   am
    16    17    18    2
    17    17    20    1
    18    20    21    1
    19    21    22    1
    20    22    23    1
    21    23    24    1
    22    24    25    1
    23     6     7   ar
    24     7     8   ar
    25     8     9   ar
    26     9     1   ar
    27    15    10   ar
    28     9     4   ar
    29    25    20    1
    30    16    19    1
    31    23    26    1
@<TRIPOS>MOLECULE
*****
 28 31 0 0 0
SMALL
GASTEIGER

@<TRIPOS>ATOM
      1 C         140.6982  144.1325  160.8995 C.ar    1  UNL1        0.1281
      2 N         141.3483  142.8954  160.3545 N.ar    1  UNL1       -0.1588
      3 N         141.4805  141.9086  161.4764 N.ar    1  UNL1       -0.2292
      4 C         140.9121  142.5358  162.7148 C.ar    1  UNL1        0.0860
      5 C         140.7724  142.0329  164.1210 C.ar    1  UNL1        0.0339
      6 C         140.1492  142.9045  165.1707 C.ar    1  UNL1        0.0518
      7 C         139.6657  144.2790  164.8142 C.ar    1  UNL1        0.0148
      8 C         139.8054  144.7818  163.4080 C.ar    1  UNL1        0.0048
      9 C         140.4287  143.9103  162.3583 C.ar    1  UNL1        0.0430
     10 C         142.0764  140.5357  161.3773 C.ar    1  UNL1        0.0828
     11 C         143.5253  140.3705  161.0258 C.ar    1  UNL1        0.0191
     12 C         144.1213  138.9975  160.9268 C.ar    1  UNL1        0.0015
     13 C         143.2684  137.7897  161.1792 C.ar    1  UNL1        0.0001
     14 C         141.8195  137.9549  161.5307 C.ar    1  UNL1        0.0015
     15 C         141.2236  139.3279  161.6298 C.ar    1  UNL1        0.0191
     16 N         140.0094  142.4017  166.5771 N.am    1  UNL1       -0.2839
     17 C         141.2287  142.2076  167.4288 C.2     1  UNL1        0.2257
     18 O         142.5879  142.5165  166.8743 O.2     1  UNL1       -0.2748
     19 H         139.1174  142.1990  166.9410 H       1  UNL1        0.1549
     20 C         141.0890  141.7048  168.8351 C.3     1  UNL1        0.0796
     21 C         140.1556  140.5700  169.1366 C.3     1  UNL1        0.0262
     22 C         140.0159  140.0672  170.5429 C.3     1  UNL1        0.0691
     23 N         140.8096  140.6992  171.6477 N.3     1  UNL1       -0.2974
     24 C         141.7430  141.8340  171.3462 C.3     1  UNL1        0.0691
     25 C         141.8827  142.3368  169.9400 C.3     1  UNL1        0.0262
     26 H         141.3721  139.9587  172.0670 H       1  UNL1        0.1232
     27 C         140.6603  145.4335  158.6509 C.3     1  UNL1        0.0757
     28 S         140.3745  145.3739  160.1223 S.3     1  UNL1       -0.0923
@<TRIPOS>BOND
     1    27    28    1
     2    28     1    1
     3     1     2   ar
     4     2     3   ar
     5     3    10    1
     6    10    11   ar
     7    11    12   ar
     8    12    13   ar
     9    13    14   ar
    10    14    15   ar
    11     3     4   ar
    12     4     5   ar
    13     5     6   ar
    14     6    16    1
    15    16    17   am
    16    17    18    2
    17    17    20    1
    18    20    21    1
    19    21    22    1
    20    22    23    1
    21    23    24    1
    22    24    25    1
    23     6     7   ar
    24     7     8   ar
    25     8     9   ar
    26     9     1   ar
    27    15    10   ar
    28     9     4   ar
    29    25    20    1
    30    16    19    1
    31    23    26    1
@<TRIPOS>MOLECULE
*****
 28 31 0 0 0
SMALL
GASTEIGER

@<TRIPOS>ATOM
      1 C         143.4163  141.9536  160.7624 C.ar    1  UNL1        0.1281
      2 N         142.2914  141.0555  160.3404 N.ar    1  UNL1       -0.1588
      3 N         141.3996  140.8407  161.5272 N.ar    1  UNL1       -0.2292
      4 C         141.9733  141.6060  162.6827 C.ar    1  UNL1        0.0860
      5 C         141.5218  141.7654  164.1042 C.ar    1  UNL1        0.0339
      6 C         142.3167  142.6127  165.0530 C.ar    1  UNL1        0.0518
      7 C         143.5631  143.3005  164.5803 C.ar    1  UNL1        0.0148
      8 C         144.0146  143.1410  163.1589 C.ar    1  UNL1        0.0048
      9 C         143.2197  142.2938  162.2100 C.ar    1  UNL1        0.0430
     10 C         140.1529  140.0070  161.5539 C.ar    1  UNL1        0.0828
     11 C         138.9305  140.4617  160.8128 C.ar    1  UNL1        0.0191
     12 C         137.6839  139.6280  160.8395 C.ar    1  UNL1        0.0015
     13 C         137.6595  138.3395  161.6072 C.ar    1  UNL1        0.0001
     14 C         138.8819  137.8849  162.3482 C.ar    1  UNL1        0.0015
     15 C         140.1285  138.7186  162.3215 C.ar    1  UNL1        0.0191
     16 N         141.8652  142.7721  166.4746 N.am    1  UNL1       -0.2839
     17 C         141.9735  141.6205  167.4296 C.2     1  UNL1        0.2257
     18 O         142.5333  140.3094  166.9630 O.2     1  UNL1       -0.2748
     19 H         141.4978  143.6327  166.7808 H       1  UNL1        0.1549
     20 C         141.5221  141.7799  168.8511 C.3     1  UNL1        0.0796
     21 C         140.4243  142.7458  169.1855 C.3     1  UNL1        0.0262
     22 C         139.9728  142.9052  170.6071 C.3     1  UNL1        0.0691
     23 N         140.6192  142.0987  171.6942 N.3     1  UNL1       -0.2974
     24 C         141.7170  141.1328  171.3597 C.3     1  UNL1        0.0691
     25 C         142.1684  140.9734  169.9382 C.3     1  UNL1        0.0262
     26 H         139.8779  141.5588  172.1407 H       1  UNL1        0.1232
     27 C         144.3644  142.4788  158.4011 C.3     1  UNL1        0.0757
     28 S         144.5404  142.4281  159.8900 S.3     1  UNL1       -0.0923
@<TRIPOS>BOND
     1    27    28    1
     2    28     1    1
     3     1     2   ar
     4     2     3   ar
     5     3    10    1
     6    10    11   ar
     7    11    12   ar
     8    12    13   ar
     9    13    14   ar
    10    14    15   ar
    11     3     4   ar
    12     4     5   ar
    13     5     6   ar
    14     6    16    1
    15    16    17   am
    16    17    18    2
    17    17    20    1
    18    20    21    1
    19    21    22    1
    20    22    23    1
    21    23    24    1
    22    24    25    1
    23     6     7   ar
    24     7     8   ar
    25     8     9   ar
    26     9     1   ar
    27    15    10   ar
    28     9     4   ar
    29    25    20    1
    30    16    19    1
    31    23    26    1
@<TRIPOS>MOLECULE
*****
 28 31 0 0 0
SMALL
GASTEIGER

@<TRIPOS>ATOM
      1 C         139.8818  139.3865  160.5087 C.ar    1  UNL1        0.1281
      2 N         139.6544  140.8409  160.2202 N.ar    1  UNL1       -0.1588
      3 N         139.9912  141.6172  161.4587 N.ar    1  UNL1       -0.2292
      4 C         140.4266  140.6426  162.5126 C.ar    1  UNL1        0.0860
      5 C         140.8760  140.8325  163.9310 C.ar    1  UNL1        0.0339
      6 C         141.2577  139.6437  164.7623 C.ar    1  UNL1        0.0518
      7 C         141.1900  138.2651  164.1751 C.ar    1  UNL1        0.0148
      8 C         140.7407  138.0752  162.7567 C.ar    1  UNL1        0.0048
      9 C         140.3590  139.2640  161.9254 C.ar    1  UNL1        0.0430
     10 C         139.9072  143.1066  161.6158 C.ar    1  UNL1        0.0828
     11 C         139.0255  143.7006  162.6740 C.ar    1  UNL1        0.0191
     12 C         138.9415  145.1900  162.8311 C.ar    1  UNL1        0.0015
     13 C         139.7393  146.0854  161.9300 C.ar    1  UNL1        0.0001
     14 C         140.6210  145.4913  160.8719 C.ar    1  UNL1        0.0015
     15 C         140.7049  144.0019  160.7148 C.ar    1  UNL1        0.0191
     16 N         141.7070  139.8335  166.1808 N.am    1  UNL1       -0.2839
     17 C         140.6942  140.0513  167.2656 C.2     1  UNL1        0.2257
     18 O         139.2320  140.0792  166.9319 O.2     1  UNL1       -0.2748
     19 H         142.6667  139.8152  166.3998 H       1  UNL1        0.1549
     20 C         141.1435  140.2411  168.6841 C.3     1  UNL1        0.0796
     21 C         140.1312  140.4687  169.7673 C.3     1  UNL1        0.0262
     22 C         140.5806  140.6585  171.1859 C.3     1  UNL1        0.0691
     23 N         142.0421  140.6207  171.5210 N.3     1  UNL1       -0.2974
     24 C         143.0544  140.3930  170.4378 C.3     1  UNL1        0.0691
     25 C         142.6051  140.2032  169.0193 C.3     1  UNL1        0.0262
     26 H         142.1684  139.8735  172.2038 H       1  UNL1        0.1232
     27 C         140.1013  138.3909  158.1189 C.3     1  UNL1        0.0757
     28 S         139.6692  138.2536  159.5488 S.3     1  UNL1       -0.0923
@<TRIPOS>BOND
     1    27    28    1
     2    28     1    1
     3     1     2   ar
     4     2     3   ar
     5     3    10    1
     6    10    11   ar
     7    11    12   ar
     8    12    13   ar
     9    13    14   ar
    10    14    15   ar
    11     3     4   ar
    12     4     5   ar
    13     5     6   ar
    14     6    16    1
    15    16    17   am
    16    17    18    2
    17    17    20    1
    18    20    21    1
    19    21    22    1
    20    22    23    1
    21    23    24    1
    22    24    25    1
    23     6     7   ar
    24     7     8   ar
    25     8     9   ar
    26     9     1   ar
    27    15    10   ar
    28     9     4   ar
    29    25    20    1
    30    16    19    1
    31    23    26    1
@<TRIPOS>MOLECULE
*****
 28 31 0 0 0
SMALL
GASTEIGER

@<TRIPOS>ATOM
      1 C         142.8425  140.3809  162.1447 C.ar    1  UNL1        0.1281
      2 N         141.9480  140.8923  163.2348 N.ar    1  UNL1       -0.1588
      3 N         141.0333  141.9212  162.6393 N.ar    1  UNL1       -0.2292
      4 C         141.3624  142.0456  161.1811 C.ar    1  UNL1        0.0860
      5 C         140.7883  142.9027  160.0922 C.ar    1  UNL1        0.0339
      6 C         141.3324  142.8079  158.6976 C.ar    1  UNL1        0.0518
      7 C         142.4506  141.8559  158.3920 C.ar    1  UNL1        0.0148
      8 C         143.0246  140.9987  159.4809 C.ar    1  UNL1        0.0048
      9 C         142.4805  141.0936  160.8754 C.ar    1  UNL1        0.0430
     10 C         139.9752  142.6906  163.3731 C.ar    1  UNL1        0.0828
     11 C         138.5988  142.1142  163.5260 C.ar    1  UNL1        0.0191
     12 C         137.5407  142.8836  164.2598 C.ar    1  UNL1        0.0015
     13 C         137.8589  144.2294  164.8407 C.ar    1  UNL1        0.0001
     14 C         139.2353  144.8058  164.6877 C.ar    1  UNL1        0.0015
     15 C         140.2934  144.0364  163.9540 C.ar    1  UNL1        0.0191
     16 N         140.7584  143.6650  157.6086 N.am    1  UNL1       -0.2839
     17 C         141.2355  145.0765  157.4350 C.2     1  UNL1        0.2257
     18 O         142.2867  145.6308  158.3504 O.2     1  UNL1       -0.2748
     19 H         140.0685  143.3012  157.0079 H       1  UNL1        0.1549
     20 C         140.6615  145.9336  156.3461 C.3     1  UNL1        0.0796
     21 C         139.5557  146.8987  156.6555 C.3     1  UNL1        0.0262
     22 C         138.9817  147.7559  155.5665 C.3     1  UNL1        0.0691
     23 N         139.5135  147.6479  154.1682 N.3     1  UNL1       -0.2974
     24 C         140.6193  146.6828  153.8587 C.3     1  UNL1        0.0691
     25 C         141.1933  145.8257  154.9477 C.3     1  UNL1        0.0262
     26 H         139.8507  148.5750  153.9090 H       1  UNL1        0.1232
     27 C         143.7508  137.9988  161.6434 C.3     1  UNL1        0.0757
     28 S         143.9112  139.3395  162.2971 S.3     1  UNL1       -0.0923
@<TRIPOS>BOND
     1    27    28    1
     2    28     1    1
     3     1     2   ar
     4     2     3   ar
     5     3    10    1
     6    10    11   ar
     7    11    12   ar
     8    12    13   ar
     9    13    14   ar
    10    14    15   ar
    11     3     4   ar
    12     4     5   ar
    13     5     6   ar
    14     6    16    1
    15    16    17   am
    16    17    18    2
    17    17    20    1
    18    20    21    1
    19    21    22    1
    20    22    23    1
    21    23    24    1
    22    24    25    1
    23     6     7   ar
    24     7     8   ar
    25     8     9   ar
    26     9     1   ar
    27    15    10   ar
    28     9     4   ar
    29    25    20    1
    30    16    19    1
    31    23    26    1
@<TRIPOS>MOLECULE
*****
 28 31 0 0 0
SMALL
GASTEIGER

@<TRIPOS>ATOM
      1 C         142.3516  143.2140  164.0772 C.ar    1  UNL1        0.1281
      2 N         141.9086  142.0369  164.8947 N.ar    1  UNL1       -0.1588
      3 N         140.7354  141.4079  164.2035 N.ar    1  UNL1       -0.2292
      4 C         140.4532  142.1961  162.9589 C.ar    1  UNL1        0.0860
      5 C         139.4158  142.0417  161.8866 C.ar    1  UNL1        0.0339
      6 C         139.3773  143.0035  160.7363 C.ar    1  UNL1        0.0518
      7 C         140.3762  144.1198  160.6582 C.ar    1  UNL1        0.0148
      8 C         141.4136  144.2743  161.7305 C.ar    1  UNL1        0.0048
      9 C         141.4521  143.3124  162.8809 C.ar    1  UNL1        0.0430
     10 C         139.9773  140.2022  164.6743 C.ar    1  UNL1        0.0828
     11 C         138.9060  140.3486  165.7141 C.ar    1  UNL1        0.0191
     12 C         138.1480  139.1429  166.1848 C.ar    1  UNL1        0.0015
     13 C         138.4611  137.7908  165.6158 C.ar    1  UNL1        0.0001
     14 C         139.5323  137.6444  164.5761 C.ar    1  UNL1        0.0015
     15 C         140.2904  138.8501  164.1054 C.ar    1  UNL1        0.0191
     16 N         138.3399  142.8491  159.6639 N.am    1  UNL1       -0.2839
     17 C         138.7469  142.4359  158.2805 C.2     1  UNL1        0.2257
     18 O         140.1914  142.1772  157.9696 O.2     1  UNL1       -0.2748
     19 H         137.3919  143.0189  159.8680 H       1  UNL1        0.1549
     20 C         137.7096  142.2815  157.2082 C.3     1  UNL1        0.0796
     21 C         137.5059  143.3724  156.1990 C.3     1  UNL1        0.0262
     22 C         136.4685  143.2179  155.1266 C.3     1  UNL1        0.0691
     23 N         135.6348  141.9726  155.0634 N.3     1  UNL1       -0.2974
     24 C         135.8384  140.8817  156.0726 C.3     1  UNL1        0.0691
     25 C         136.8758  141.0361  157.1450 C.3     1  UNL1        0.0262
     26 H         135.7942  141.5578  154.1453 H       1  UNL1        0.1232
     27 C         144.5746  143.6828  165.3377 C.3     1  UNL1        0.0757
     28 S         143.4936  144.1316  164.3996 S.3     1  UNL1       -0.0923
@<TRIPOS>BOND
     1    27    28    1
     2    28     1    1
     3     1     2   ar
     4     2     3   ar
     5     3    10    1
     6    10    11   ar
     7    11    12   ar
     8    12    13   ar
     9    13    14   ar
    10    14    15   ar
    11     3     4   ar
    12     4     5   ar
    13     5     6   ar
    14     6    16    1
    15    16    17   am
    16    17    18    2
    17    17    20    1
    18    20    21    1
    19    21    22    1
    20    22    23    1
    21    23    24    1
    22    24    25    1
    23     6     7   ar
    24     7     8   ar
    25     8     9   ar
    26     9     1   ar
    27    15    10   ar
    28     9     4   ar
    29    25    20    1
    30    16    19    1
    31    23    26    1
@<TRIPOS>MOLECULE
*****
 28 31 0 0 0
SMALL
GASTEIGER

@<TRIPOS>ATOM
      1 C         140.8768  136.7098  154.8754 C.ar    1  UNL1        0.1281
      2 N         141.5492  135.3778  154.7215 N.ar    1  UNL1       -0.1588
      3 N         142.3842  135.1361  155.9440 N.ar    1  UNL1       -0.2292
      4 C         142.2279  136.3187  156.8534 C.ar    1  UNL1        0.0860
      5 C         142.8134  136.6356  158.1975 C.ar    1  UNL1        0.0339
      6 C         142.4674  137.9251  158.8812 C.ar    1  UNL1        0.0518
      7 C         141.5358  138.8977  158.2207 C.ar    1  UNL1        0.0148
      8 C         140.9502  138.5808  156.8767 C.ar    1  UNL1        0.0048
      9 C         141.2963  137.2913  156.1930 C.ar    1  UNL1        0.0430
     10 C         143.2275  133.9245  156.2103 C.ar    1  UNL1        0.0828
     11 C         143.9952  133.8125  157.4942 C.ar    1  UNL1        0.0191
     12 C         144.8385  132.6009  157.7605 C.ar    1  UNL1        0.0015
     13 C         144.9141  131.5013  156.7431 C.ar    1  UNL1        0.0001
     14 C         144.1464  131.6133  155.4593 C.ar    1  UNL1        0.0015
     15 C         143.3031  132.8249  155.1930 C.ar    1  UNL1        0.0191
     16 N         143.0530  138.2420  160.2253 N.am    1  UNL1       -0.2839
     17 C         142.2256  138.0667  161.4641 C.2     1  UNL1        0.2257
     18 O         140.8125  137.5744  161.3587 O.2     1  UNL1       -0.2748
     19 H         143.9804  138.5651  160.2945 H       1  UNL1        0.1549
     20 C         142.8111  138.3836  162.8082 C.3     1  UNL1        0.0796
     21 C         142.0819  137.9847  164.0569 C.3     1  UNL1        0.0262
     22 C         142.6675  138.3016  165.4011 C.3     1  UNL1        0.0691
     23 N         143.9822  139.0174  165.4965 N.3     1  UNL1       -0.2974
     24 C         144.7114  139.4163  164.2478 C.3     1  UNL1        0.0691
     25 C         144.1259  139.0994  162.9037 C.3     1  UNL1        0.0262
     26 H         144.6104  138.4104  166.0231 H       1  UNL1        0.1232
     27 C         138.4693  137.3493  154.1373 C.3     1  UNL1        0.0757
     28 S         139.9481  137.3482  153.8856 S.3     1  UNL1       -0.0923
@<TRIPOS>BOND
     1    27    28    1
     2    28     1    1
     3     1     2   ar
     4     2     3   ar
     5     3    10    1
     6    10    11   ar
     7    11    12   ar
     8    12    13   ar
     9    13    14   ar
    10    14    15   ar
    11     3     4   ar
    12     4     5   ar
    13     5     6   ar
    14     6    16    1
    15    16    17   am
    16    17    18    2
    17    17    20    1
    18    20    21    1
    19    21    22    1
    20    22    23    1
    21    23    24    1
    22    24    25    1
    23     6     7   ar
    24     7     8   ar
    25     8     9   ar
    26     9     1   ar
    27    15    10   ar
    28     9     4   ar
    29    25    20    1
    30    16    19    1
    31    23    26    1
@<TRIPOS>MOLECULE
*****
 28 31 0 0 0
SMALL
GASTEIGER

@<TRIPOS>ATOM
      1 C         142.7226  142.0289  166.3732 C.ar    1  UNL1        0.1281
      2 N         141.8541  140.8172  166.2075 N.ar    1  UNL1       -0.1588
      3 N         141.4342  140.7410  164.7695 N.ar    1  UNL1       -0.2292
      4 C         142.0432  141.9056  164.0464 C.ar    1  UNL1        0.0860
      5 C         141.9755  142.3441  162.6136 C.ar    1  UNL1        0.0339
      6 C         142.7042  143.5786  162.1719 C.ar    1  UNL1        0.0518
      7 C         143.5005  144.3745  163.1630 C.ar    1  UNL1        0.0148
      8 C         143.5682  143.9360  164.5959 C.ar    1  UNL1        0.0048
      9 C         142.8395  142.7016  165.0376 C.ar    1  UNL1        0.0430
     10 C         140.5589  139.6856  164.1613 C.ar    1  UNL1        0.0828
     11 C         139.7812  138.7555  165.0447 C.ar    1  UNL1        0.0191
     12 C         138.9060  137.7000  164.4365 C.ar    1  UNL1        0.0015
     13 C         138.8083  137.5746  162.9450 C.ar    1  UNL1        0.0001
     14 C         139.5859  138.5047  162.0616 C.ar    1  UNL1        0.0015
     15 C         140.4611  139.5602  162.6698 C.ar    1  UNL1        0.0191
     16 N         142.6365  144.0172  160.7390 N.am    1  UNL1       -0.2839
     17 C         141.3779  144.6309  160.2011 C.2     1  UNL1        0.2257
     18 O         140.1870  144.8060  161.0962 O.2     1  UNL1       -0.2748
     19 H         143.4182  143.9022  160.1516 H       1  UNL1        0.1549
     20 C         141.3103  145.0694  158.7683 C.3     1  UNL1        0.0796
     21 C         142.3733  144.6394  157.8013 C.3     1  UNL1        0.0262
     22 C         142.3055  145.0780  156.3684 C.3     1  UNL1        0.0691
     23 N         141.1748  145.9466  155.9026 N.3     1  UNL1       -0.2974
     24 C         140.1118  146.3766  156.8696 C.3     1  UNL1        0.0691
     25 C         140.1795  145.9381  158.3024 C.3     1  UNL1        0.0262
     26 H         140.7037  145.4398  155.1532 H       1  UNL1        0.1232
     27 C         142.9359  141.8906  168.9589 C.3     1  UNL1        0.0757
     28 S         143.3620  142.4874  167.6503 S.3     1  UNL1       -0.0923
@<TRIPOS>BOND
     1    27    28    1
     2    28     1    1
     3     1     2   ar
     4     2     3   ar
     5     3    10    1
     6    10    11   ar
     7    11    12   ar
     8    12    13   ar
     9    13    14   ar
    10    14    15   ar
    11     3     4   ar
    12     4     5   ar
    13     5     6   ar
    14     6    16    1
    15    16    17   am
    16    17    18    2
    17    17    20    1
    18    20    21    1
    19    21    22    1
    20    22    23    1
    21    23    24    1
    22    24    25    1
    23     6     7   ar
    24     7     8   ar
    25     8     9   ar
    26     9     1   ar
    27    15    10   ar
    28     9     4   ar
    29    25    20    1
    30    16    19    1
    31    23    26    1
