@<TRIPOS>MOLECULE
*****
 35 38 0 0 0
SMALL
GASTEIGER

@<TRIPOS>ATOM
      1 C         142.5878  141.3523  167.4325 C.ar    1  UNL1        0.1060
      2 C         142.2597  139.8886  167.4323 C.ar    1  UNL1        0.0215
      3 C         142.6513  139.0324  166.2646 C.ar    1  UNL1        0.0384
      4 C         143.3711  139.6399  165.0971 C.ar    1  UNL1        0.1432
      5 C         143.6991  141.1036  165.0973 C.ar    1  UNL1        0.0888
      6 C         143.3074  141.9598  166.2650 C.ar    1  UNL1        0.0259
      7 C         144.4188  141.7110  163.9298 C.2     1  UNL1        0.2525
      8 O         145.9177  141.7686  163.9202 O.2     1  UNL1       -0.2698
      9 N         143.6397  142.2609  162.7719 N.am    1  UNL1       -0.2660
     10 C         142.1454  142.2734  162.6412 C.3     1  UNL1        0.1236
     11 C         141.8003  142.9150  161.3300 C.ar    1  UNL1        0.0338
     12 C         140.6635  143.3192  160.4388 C.ar    1  UNL1        0.0991
     13 N         141.2417  143.9531  159.2084 N.ar    1  UNL1       -0.2265
     14 N         142.7360  143.9405  159.3392 N.ar    1  UNL1       -0.1679
     15 C         143.0812  143.2989  160.6504 C.ar    1  UNL1        0.0981
     16 C         144.2180  142.8947  161.5416 C.3     1  UNL1        0.1414
     17 C         140.4626  144.5029  158.0506 C.ar    1  UNL1        0.1102
     18 C         140.5208  145.9683  157.7357 C.ar    1  UNL1        0.0214
     19 C         139.7417  146.5182  156.5778 C.ar    1  UNL1        0.0017
     20 C         138.9044  145.6026  155.7348 C.ar    1  UNL1        0.0024
     21 C         138.8462  144.1371  156.0498 C.ar    1  UNL1        0.0312
     22 C         139.6253  143.5873  157.2075 C.ar    1  UNL1        0.1577
     23 F         139.5671  142.1219  157.5225 F       1  UNL1       -0.2026
     24 S         142.1961  142.2085  168.6001 S.O2    1  UNL1        0.0087
     25 O         140.7738  141.7542  168.4563 O.2     1  UNL1       -0.1686
     26 O         143.6184  142.6629  168.7440 O.2     1  UNL1       -0.1686
     27 C         140.4804  143.7697  169.7703 C.3     1  UNL1        0.0276
     28 C         141.8045  143.0648  169.7678 C.3     1  UNL1        0.1560
     29 O         143.7627  138.7837  163.9294 O.3     1  UNL1       -0.4702
     30 C         142.7618  138.4770  162.8551 C.3     1  UNL1        0.2599
     31 C         141.5657  137.6265  163.1650 C.3     1  UNL1        0.0566
     32 C         142.9568  139.0209  161.4709 C.3     1  UNL1        0.4340
     33 F         143.1518  139.5647  160.0865 F       1  UNL1       -0.1664
     34 F         144.4105  139.2464  161.7642 F       1  UNL1       -0.1664
     35 F         141.5032  138.7954  161.1775 F       1  UNL1       -0.1664
@<TRIPOS>BOND
     1    27    28    1
     2    28    24    1
     3    24    25    2
     4    24    26    2
     5    24     1    1
     6     1     2   ar
     7     2     3   ar
     8     3     4   ar
     9     4    29    1
    10    29    30    1
    11    30    31    1
    12    30    32    1
    13    32    33    1
    14    32    34    1
    15    32    35    1
    16     4     5   ar
    17     5     7    1
    18     7     8    2
    19     7     9   am
    20     9    10    1
    21    10    11    1
    22    11    12   ar
    23    12    13   ar
    24    13    17    1
    25    17    18   ar
    26    18    19   ar
    27    19    20   ar
    28    20    21   ar
    29    21    22   ar
    30    22    23    1
    31    13    14   ar
    32    14    15   ar
    33    15    16    1
    34     5     6   ar
    35     6     1   ar
    36    16     9    1
    37    15    11   ar
    38    22    17   ar
@<TRIPOS>MOLECULE
*****
 35 38 0 0 0
SMALL
GASTEIGER

@<TRIPOS>ATOM
      1 C         139.8541  143.4928  163.3807 C.ar    1  UNL1        0.1060
      2 C         138.7517  143.2399  164.3660 C.ar    1  UNL1        0.0215
      3 C         138.7386  141.9722  165.1678 C.ar    1  UNL1        0.0384
      4 C         139.8281  140.9575  164.9842 C.ar    1  UNL1        0.1432
      5 C         140.9305  141.2104  163.9990 C.ar    1  UNL1        0.0888
      6 C         140.9435  142.4782  163.1972 C.ar    1  UNL1        0.0259
      7 C         142.0198  140.1957  163.8156 C.2     1  UNL1        0.2525
      8 O         142.9635  139.8965  164.9424 O.2     1  UNL1       -0.2698
      9 N         142.1654  139.4802  162.5053 N.am    1  UNL1       -0.2660
     10 C         141.3014  139.6734  161.2944 C.3     1  UNL1        0.1236
     11 C         141.8026  138.7585  160.2167 C.ar    1  UNL1        0.0338
     12 C         141.5784  138.3124  158.8022 C.ar    1  UNL1        0.0991
     13 N         142.6136  137.2781  158.4726 N.ar    1  UNL1       -0.2265
     14 N         143.4777  137.0849  159.6835 N.ar    1  UNL1       -0.1679
     15 C         142.9764  137.9999  160.7613 C.ar    1  UNL1        0.0981
     16 C         143.2007  138.4459  162.1758 C.3     1  UNL1        0.1414
     17 C         142.7592  136.5626  157.1624 C.ar    1  UNL1        0.1102
     18 C         142.5028  137.2919  155.8770 C.ar    1  UNL1        0.0214
     19 C         142.6484  136.5764  154.5667 C.ar    1  UNL1        0.0017
     20 C         143.0505  135.1316  154.5418 C.ar    1  UNL1        0.0024
     21 C         143.3070  134.4022  155.8273 C.ar    1  UNL1        0.0312
     22 C         143.1613  135.1176  157.1375 C.ar    1  UNL1        0.1577
     23 F         143.4178  134.3883  158.4229 F       1  UNL1       -0.2026
     24 S         139.8672  144.7605  162.5789 S.O2    1  UNL1        0.0087
     25 O         141.3190  144.9513  162.9042 O.2     1  UNL1       -0.1686
     26 O         138.4154  144.5697  162.2536 O.2     1  UNL1       -0.1686
     27 C         140.0081  145.9697  160.2838 C.3     1  UNL1        0.0276
     28 C         139.8803  146.0281  161.7771 C.3     1  UNL1        0.1560
     29 O         139.8150  139.6898  165.7860 O.3     1  UNL1       -0.4702
     30 C         138.8971  138.5679  165.4004 C.3     1  UNL1        0.2599
     31 C         138.9311  138.0167  164.0057 C.3     1  UNL1        0.0566
     32 C         137.9452  137.9971  166.4093 C.3     1  UNL1        0.4340
     33 F         136.9932  137.4264  167.4184 F       1  UNL1       -0.1664
     34 F         138.1306  136.6334  165.8129 F       1  UNL1       -0.1664
     35 F         137.7597  139.3608  167.0058 F       1  UNL1       -0.1664
@<TRIPOS>BOND
     1    27    28    1
     2    28    24    1
     3    24    25    2
     4    24    26    2
     5    24     1    1
     6     1     2   ar
     7     2     3   ar
     8     3     4   ar
     9     4    29    1
    10    29    30    1
    11    30    31    1
    12    30    32    1
    13    32    33    1
    14    32    34    1
    15    32    35    1
    16     4     5   ar
    17     5     7    1
    18     7     8    2
    19     7     9   am
    20     9    10    1
    21    10    11    1
    22    11    12   ar
    23    12    13   ar
    24    13    17    1
    25    17    18   ar
    26    18    19   ar
    27    19    20   ar
    28    20    21   ar
    29    21    22   ar
    30    22    23    1
    31    13    14   ar
    32    14    15   ar
    33    15    16    1
    34     5     6   ar
    35     6     1   ar
    36    16     9    1
    37    15    11   ar
    38    22    17   ar
@<TRIPOS>MOLECULE
*****
 35 38 0 0 0
SMALL
GASTEIGER

@<TRIPOS>ATOM
      1 C         142.3261  140.0675  167.2915 C.ar    1  UNL1        0.1060
      2 C         143.1245  138.8685  166.8731 C.ar    1  UNL1        0.0215
      3 C         142.6625  138.0240  165.7227 C.ar    1  UNL1        0.0384
      4 C         141.4020  138.3785  164.9908 C.ar    1  UNL1        0.1432
      5 C         140.6037  139.5775  165.4092 C.ar    1  UNL1        0.0888
      6 C         141.0657  140.4220  166.5596 C.ar    1  UNL1        0.0259
      7 C         139.3433  139.9319  164.6772 C.2     1  UNL1        0.2525
      8 O         138.0160  139.4718  165.2031 O.2     1  UNL1       -0.2698
      9 N         139.4102  140.7463  163.4194 N.am    1  UNL1       -0.2660
     10 C         140.6582  141.2744  162.7763 C.3     1  UNL1        0.1236
     11 C         140.2601  142.0302  161.5433 C.ar    1  UNL1        0.0338
     12 C         140.7854  142.8236  160.3838 C.ar    1  UNL1        0.0991
     13 N         139.6161  143.2530  159.5481 N.ar    1  UNL1       -0.2265
     14 N         138.3680  142.7249  160.1913 N.ar    1  UNL1       -0.1679
     15 C         138.7661  141.9692  161.4243 C.ar    1  UNL1        0.0981
     16 C         138.2408  141.1757  162.5838 C.3     1  UNL1        0.1414
     17 C         139.6829  144.0675  158.2903 C.ar    1  UNL1        0.1102
     18 C         139.0400  143.5606  157.0335 C.ar    1  UNL1        0.0214
     19 C         139.1068  144.3750  155.7756 C.ar    1  UNL1        0.0017
     20 C         139.8167  145.6964  155.7746 C.ar    1  UNL1        0.0024
     21 C         140.4597  146.2033  157.0315 C.ar    1  UNL1        0.0312
     22 C         140.3928  145.3889  158.2893 C.ar    1  UNL1        0.1577
     23 F         141.0358  145.8958  159.5461 F       1  UNL1       -0.2026
     24 S         142.7881  140.9120  168.4418 S.O2    1  UNL1        0.0087
     25 O         143.0663  139.6728  169.2399 O.2     1  UNL1       -0.1686
     26 O         142.5100  142.1513  167.6437 O.2     1  UNL1       -0.1686
     27 C         142.4718  142.9765  169.9871 C.3     1  UNL1        0.0276
     28 C         143.2501  141.7566  169.5922 C.3     1  UNL1        0.1560
     29 O         140.9400  137.5339  163.8404 O.3     1  UNL1       -0.4702
     30 C         141.3715  137.8687  162.4434 C.3     1  UNL1        0.2599
     31 C         142.8254  138.0735  162.1362 C.3     1  UNL1        0.0566
     32 C         140.3492  137.9987  161.3535 C.3     1  UNL1        0.4340
     33 F         139.3268  138.1287  160.2636 F       1  UNL1       -0.1664
     34 F         141.4169  138.4618  160.4071 F       1  UNL1       -0.1664
     35 F         139.2815  137.5356  162.2998 F       1  UNL1       -0.1664
@<TRIPOS>BOND
     1    27    28    1
     2    28    24    1
     3    24    25    2
     4    24    26    2
     5    24     1    1
     6     1     2   ar
     7     2     3   ar
     8     3     4   ar
     9     4    29    1
    10    29    30    1
    11    30    31    1
    12    30    32    1
    13    32    33    1
    14    32    34    1
    15    32    35    1
    16     4     5   ar
    17     5     7    1
    18     7     8    2
    19     7     9   am
    20     9    10    1
    21    10    11    1
    22    11    12   ar
    23    12    13   ar
    24    13    17    1
    25    17    18   ar
    26    18    19   ar
    27    19    20   ar
    28    20    21   ar
    29    21    22   ar
    30    22    23    1
    31    13    14   ar
    32    14    15   ar
    33    15    16    1
    34     5     6   ar
    35     6     1   ar
    36    16     9    1
    37    15    11   ar
    38    22    17   ar
@<TRIPOS>MOLECULE
*****
 35 38 0 0 0
SMALL
GASTEIGER

@<TRIPOS>ATOM
      1 C         140.8826  140.2081  167.9336 C.ar    1  UNL1        0.1060
      2 C         142.3404  139.8666  168.0244 C.ar    1  UNL1        0.0215
      3 C         143.0258  139.1920  166.8733 C.ar    1  UNL1        0.0384
      4 C         142.2534  138.8589  165.6313 C.ar    1  UNL1        0.1432
      5 C         140.7956  139.2003  165.5405 C.ar    1  UNL1        0.0888
      6 C         140.1102  139.8749  166.6917 C.ar    1  UNL1        0.0259
      7 C         140.0233  138.8671  164.2985 C.2     1  UNL1        0.2525
      8 O         139.2956  137.5595  164.1960 O.2     1  UNL1       -0.2698
      9 N         139.9786  139.8416  163.1590 N.am    1  UNL1       -0.2660
     10 C         140.6530  141.1808  163.1173 C.3     1  UNL1        0.1236
     11 C         140.3429  141.8148  161.7937 C.ar    1  UNL1        0.0338
     12 C         140.5680  143.0343  160.9498 C.ar    1  UNL1        0.0991
     13 N         139.8412  142.8407  159.6520 N.ar    1  UNL1       -0.2265
     14 N         139.1668  141.5014  159.6939 N.ar    1  UNL1       -0.1679
     15 C         139.4769  140.8674  161.0174 C.ar    1  UNL1        0.0981
     16 C         139.2517  139.6479  161.8613 C.3     1  UNL1        0.1414
     17 C         139.7965  143.8151  158.5126 C.ar    1  UNL1        0.1102
     18 C         139.2320  143.3948  157.1880 C.ar    1  UNL1        0.0214
     19 C         139.1873  144.3692  156.0484 C.ar    1  UNL1        0.0017
     20 C         139.7072  145.7640  156.2336 C.ar    1  UNL1        0.0024
     21 C         140.2717  146.1844  157.5583 C.ar    1  UNL1        0.0312
     22 C         140.3163  145.2100  158.6977 C.ar    1  UNL1        0.1577
     23 F         140.8808  145.6303  160.0223 F       1  UNL1       -0.2026
     24 S         140.1971  140.8827  169.0847 S.O2    1  UNL1        0.0087
     25 O         139.2172  139.7498  169.1651 O.2     1  UNL1       -0.1686
     26 O         141.1770  142.0155  169.0043 O.2     1  UNL1       -0.1686
     27 C         139.8082  142.9943  170.5476 C.3     1  UNL1        0.0276
     28 C         139.5116  141.5573  170.2358 C.3     1  UNL1        0.1560
     29 O         142.9389  138.1842  164.4802 O.3     1  UNL1       -0.4702
     30 C         143.6460  139.0051  163.4429 C.3     1  UNL1        0.2599
     31 C         143.3114  138.8295  161.9913 C.3     1  UNL1        0.0566
     32 C         144.6878  140.0017  163.8571 C.3     1  UNL1        0.4340
     33 F         145.7296  140.9983  164.2714 F       1  UNL1       -0.1664
     34 F         143.9172  141.0917  163.1730 F       1  UNL1       -0.1664
     35 F         145.4584  138.9118  164.5413 F       1  UNL1       -0.1664
@<TRIPOS>BOND
     1    27    28    1
     2    28    24    1
     3    24    25    2
     4    24    26    2
     5    24     1    1
     6     1     2   ar
     7     2     3   ar
     8     3     4   ar
     9     4    29    1
    10    29    30    1
    11    30    31    1
    12    30    32    1
    13    32    33    1
    14    32    34    1
    15    32    35    1
    16     4     5   ar
    17     5     7    1
    18     7     8    2
    19     7     9   am
    20     9    10    1
    21    10    11    1
    22    11    12   ar
    23    12    13   ar
    24    13    17    1
    25    17    18   ar
    26    18    19   ar
    27    19    20   ar
    28    20    21   ar
    29    21    22   ar
    30    22    23    1
    31    13    14   ar
    32    14    15   ar
    33    15    16    1
    34     5     6   ar
    35     6     1   ar
    36    16     9    1
    37    15    11   ar
    38    22    17   ar
@<TRIPOS>MOLECULE
*****
 35 38 0 0 0
SMALL
GASTEIGER

@<TRIPOS>ATOM
      1 C         141.1247  142.9546  164.3697 C.ar    1  UNL1        0.1060
      2 C         140.9554  142.3312  165.7234 C.ar    1  UNL1        0.0215
      3 C         139.9512  141.2351  165.9242 C.ar    1  UNL1        0.0384
      4 C         139.1163  140.7625  164.7710 C.ar    1  UNL1        0.1432
      5 C         139.2856  141.3859  163.4172 C.ar    1  UNL1        0.0888
      6 C         140.2898  142.4820  163.2166 C.ar    1  UNL1        0.0259
      7 C         138.4506  140.9133  162.2642 C.2     1  UNL1        0.2525
      8 O         136.9847  141.2280  162.2211 O.2     1  UNL1       -0.2698
      9 N         139.0817  140.1259  161.1543 N.am    1  UNL1       -0.2660
     10 C         140.5273  139.7368  161.0607 C.3     1  UNL1        0.1236
     11 C         140.7169  138.9598  159.7917 C.ar    1  UNL1        0.0338
     12 C         141.7275  138.2391  158.9496 C.ar    1  UNL1        0.0991
     13 N         141.0237  137.7025  157.7385 N.ar    1  UNL1       -0.2265
     14 N         139.5780  138.0916  157.8321 N.ar    1  UNL1       -0.1679
     15 C         139.3885  138.8686  159.1011 C.ar    1  UNL1        0.0981
     16 C         138.3778  139.5893  159.9433 C.3     1  UNL1        0.1414
     17 C         141.6547  136.9152  156.6286 C.ar    1  UNL1        0.1102
     18 C         143.1417  136.7204  156.5986 C.ar    1  UNL1        0.0214
     19 C         143.7728  135.9330  155.4887 C.ar    1  UNL1        0.0017
     20 C         142.9168  135.3404  154.4089 C.ar    1  UNL1        0.0024
     21 C         141.4297  135.5351  154.4389 C.ar    1  UNL1        0.0312
     22 C         140.7987  136.3225  155.5487 C.ar    1  UNL1        0.1577
     23 F         139.3118  136.5173  155.5788 F       1  UNL1       -0.2026
     24 S         142.1289  144.0506  164.1689 S.O2    1  UNL1        0.0087
     25 O         141.0162  145.0515  164.0676 O.2     1  UNL1       -0.1686
     26 O         143.2415  143.0497  164.2702 O.2     1  UNL1       -0.1686
     27 C         144.2395  144.9765  162.9698 C.3     1  UNL1        0.0276
     28 C         143.1331  145.1466  163.9682 C.3     1  UNL1        0.1560
     29 O         138.1121  139.6665  164.9718 O.3     1  UNL1       -0.4702
     30 C         138.5732  138.2505  165.1516 C.3     1  UNL1        0.2599
     31 C         138.0915  137.4480  166.3238 C.3     1  UNL1        0.0566
     32 C         139.5160  137.6370  164.1594 C.3     1  UNL1        0.4340
     33 F         140.4589  137.0234  163.1670 F       1  UNL1       -0.1664
     34 F         140.6069  137.6481  165.1889 F       1  UNL1       -0.1664
     35 F         138.4253  137.6258  163.1298 F       1  UNL1       -0.1664
@<TRIPOS>BOND
     1    27    28    1
     2    28    24    1
     3    24    25    2
     4    24    26    2
     5    24     1    1
     6     1     2   ar
     7     2     3   ar
     8     3     4   ar
     9     4    29    1
    10    29    30    1
    11    30    31    1
    12    30    32    1
    13    32    33    1
    14    32    34    1
    15    32    35    1
    16     4     5   ar
    17     5     7    1
    18     7     8    2
    19     7     9   am
    20     9    10    1
    21    10    11    1
    22    11    12   ar
    23    12    13   ar
    24    13    17    1
    25    17    18   ar
    26    18    19   ar
    27    19    20   ar
    28    20    21   ar
    29    21    22   ar
    30    22    23    1
    31    13    14   ar
    32    14    15   ar
    33    15    16    1
    34     5     6   ar
    35     6     1   ar
    36    16     9    1
    37    15    11   ar
    38    22    17   ar
@<TRIPOS>MOLECULE
*****
 35 38 0 0 0
SMALL
GASTEIGER

@<TRIPOS>ATOM
      1 C         139.9357  140.4968  167.3377 C.ar    1  UNL1        0.1060
      2 C         138.8884  139.5112  166.9113 C.ar    1  UNL1        0.0215
      3 C         138.1030  139.7476  165.6554 C.ar    1  UNL1        0.0384
      4 C         138.3651  140.9696  164.8259 C.ar    1  UNL1        0.1432
      5 C         139.4123  141.9552  165.2523 C.ar    1  UNL1        0.0888
      6 C         140.1976  141.7188  166.5082 C.ar    1  UNL1        0.0259
      7 C         139.6742  143.1772  164.4227 C.2     1  UNL1        0.2525
      8 O         139.0735  144.4939  164.8166 O.2     1  UNL1       -0.2698
      9 N         140.5369  143.0823  163.1992 N.am    1  UNL1       -0.2660
     10 C         141.2022  141.8408  162.6836 C.3     1  UNL1        0.1236
     11 C         141.9622  142.2036  161.4423 C.ar    1  UNL1        0.0338
     12 C         142.8431  141.6605  160.3565 C.ar    1  UNL1        0.0991
     13 N         143.1919  142.7906  159.4338 N.ar    1  UNL1       -0.2265
     14 N         142.5265  144.0322  159.9495 N.ar    1  UNL1       -0.1679
     15 C         141.7666  143.6693  161.1908 C.ar    1  UNL1        0.0981
     16 C         140.8857  144.2125  162.2766 C.3     1  UNL1        0.1414
     17 C         144.0545  142.6958  158.2104 C.ar    1  UNL1        0.1102
     18 C         145.5431  142.5752  158.3498 C.ar    1  UNL1        0.0214
     19 C         146.4058  142.4804  157.1264 C.ar    1  UNL1        0.0017
     20 C         145.7798  142.5062  155.7635 C.ar    1  UNL1        0.0024
     21 C         144.2911  142.6267  155.6241 C.ar    1  UNL1        0.0312
     22 C         143.4285  142.7215  156.8474 C.ar    1  UNL1        0.1577
     23 F         141.9399  142.8420  156.7080 F       1  UNL1       -0.2026
     24 S         140.7210  140.2604  168.5937 S.O2    1  UNL1        0.0087
     25 O         139.4757  139.7876  169.2834 O.2     1  UNL1       -0.1686
     26 O         141.9663  140.7333  167.9040 O.2     1  UNL1       -0.1686
     27 C         142.4992  138.9014  169.9133 C.3     1  UNL1        0.0276
     28 C         141.5064  140.0241  169.8496 C.3     1  UNL1        0.1560
     29 O         137.5797  141.2060  163.5699 O.3     1  UNL1       -0.4702
     30 C         137.9815  140.5257  162.2949 C.3     1  UNL1        0.2599
     31 C         138.2556  139.0509  162.2858 C.3     1  UNL1        0.0566
     32 C         138.1092  141.3200  161.0290 C.3     1  UNL1        0.4340
     33 F         138.2368  142.1144  159.7629 F       1  UNL1       -0.1664
     34 F         138.5225  140.0802  160.2926 F       1  UNL1       -0.1664
     35 F         137.6959  142.5598  161.7652 F       1  UNL1       -0.1664
@<TRIPOS>BOND
     1    27    28    1
     2    28    24    1
     3    24    25    2
     4    24    26    2
     5    24     1    1
     6     1     2   ar
     7     2     3   ar
     8     3     4   ar
     9     4    29    1
    10    29    30    1
    11    30    31    1
    12    30    32    1
    13    32    33    1
    14    32    34    1
    15    32    35    1
    16     4     5   ar
    17     5     7    1
    18     7     8    2
    19     7     9   am
    20     9    10    1
    21    10    11    1
    22    11    12   ar
    23    12    13   ar
    24    13    17    1
    25    17    18   ar
    26    18    19   ar
    27    19    20   ar
    28    20    21   ar
    29    21    22   ar
    30    22    23    1
    31    13    14   ar
    32    14    15   ar
    33    15    16    1
    34     5     6   ar
    35     6     1   ar
    36    16     9    1
    37    15    11   ar
    38    22    17   ar
@<TRIPOS>MOLECULE
*****
 35 38 0 0 0
SMALL
GASTEIGER

@<TRIPOS>ATOM
      1 C         140.9544  141.0062  167.1276 C.ar    1  UNL1        0.1060
      2 C         141.5465  142.3748  166.9651 C.ar    1  UNL1        0.0215
      3 C         141.3446  143.1323  165.6863 C.ar    1  UNL1        0.0384
      4 C         140.5506  142.5212  164.5699 C.ar    1  UNL1        0.1432
      5 C         139.9584  141.1526  164.7324 C.ar    1  UNL1        0.0888
      6 C         140.1603  140.3951  166.0113 C.ar    1  UNL1        0.0259
      7 C         139.1644  140.5416  163.6161 C.2     1  UNL1        0.2525
      8 O         137.6666  140.5107  163.6907 O.2     1  UNL1       -0.2698
      9 N         139.8682  139.9615  162.4253 N.am    1  UNL1       -0.2660
     10 C         141.3524  139.9204  162.2119 C.3     1  UNL1        0.1236
     11 C         141.6128  139.2542  160.8934 C.ar    1  UNL1        0.0338
     12 C         142.6911  138.8170  159.9467 C.ar    1  UNL1        0.0991
     13 N         142.0343  138.1762  158.7601 N.ar    1  UNL1       -0.2265
     14 N         140.5500  138.2173  158.9735 N.ar    1  UNL1       -0.1679
     15 C         140.2896  138.8836  160.2920 C.ar    1  UNL1        0.0981
     16 C         139.2114  139.3207  161.2387 C.3     1  UNL1        0.1414
     17 C         142.7380  137.5961  157.5693 C.ar    1  UNL1        0.1102
     18 C         142.8980  136.1101  157.4430 C.ar    1  UNL1        0.0214
     19 C         143.6018  135.5299  156.2521 C.ar    1  UNL1        0.0017
     20 C         144.1456  136.4359  155.1875 C.ar    1  UNL1        0.0024
     21 C         143.9856  137.9221  155.3138 C.ar    1  UNL1        0.0312
     22 C         143.2818  138.5021  156.5046 C.ar    1  UNL1        0.1577
     23 F         143.1218  139.9882  156.6308 F       1  UNL1       -0.2026
     24 S         141.1562  140.2487  168.4064 S.O2    1  UNL1        0.0087
     25 O         139.9782  140.9542  169.0103 O.2     1  UNL1       -0.1686
     26 O         142.3342  139.5432  167.8026 O.2     1  UNL1       -0.1686
     27 C         142.7210  139.4199  170.3077 C.3     1  UNL1        0.0276
     28 C         141.3581  139.4911  169.6853 C.3     1  UNL1        0.1560
     29 O         140.3487  143.2787  163.2911 O.3     1  UNL1       -0.4702
     30 C         139.3725  144.4164  163.2394 C.3     1  UNL1        0.2599
     31 C         139.5542  145.5155  162.2350 C.3     1  UNL1        0.0566
     32 C         138.2146  144.4550  164.1921 C.3     1  UNL1        0.4340
     33 F         137.0565  144.4935  165.1448 F       1  UNL1       -0.1664
     34 F         139.0050  145.3318  165.1175 F       1  UNL1       -0.1664
     35 F         137.4241  143.5782  163.2668 F       1  UNL1       -0.1664
@<TRIPOS>BOND
     1    27    28    1
     2    28    24    1
     3    24    25    2
     4    24    26    2
     5    24     1    1
     6     1     2   ar
     7     2     3   ar
     8     3     4   ar
     9     4    29    1
    10    29    30    1
    11    30    31    1
    12    30    32    1
    13    32    33    1
    14    32    34    1
    15    32    35    1
    16     4     5   ar
    17     5     7    1
    18     7     8    2
    19     7     9   am
    20     9    10    1
    21    10    11    1
    22    11    12   ar
    23    12    13   ar
    24    13    17    1
    25    17    18   ar
    26    18    19   ar
    27    19    20   ar
    28    20    21   ar
    29    21    22   ar
    30    22    23    1
    31    13    14   ar
    32    14    15   ar
    33    15    16    1
    34     5     6   ar
    35     6     1   ar
    36    16     9    1
    37    15    11   ar
    38    22    17   ar
@<TRIPOS>MOLECULE
*****
 35 38 0 0 0
SMALL
GASTEIGER

@<TRIPOS>ATOM
      1 C         138.9782  139.8090  163.9596 C.ar    1  UNL1        0.1060
      2 C         137.8105  140.4660  163.2852 C.ar    1  UNL1        0.0215
      3 C         138.0063  141.7417  162.5209 C.ar    1  UNL1        0.0384
      4 C         139.3698  142.3604  162.4310 C.ar    1  UNL1        0.1432
      5 C         140.5375  141.7034  163.1053 C.ar    1  UNL1        0.0888
      6 C         140.3417  140.4276  163.8697 C.ar    1  UNL1        0.0259
      7 C         141.9010  142.3221  163.0154 C.2     1  UNL1        0.2525
      8 O         142.4846  143.0270  164.2038 O.2     1  UNL1       -0.2698
      9 N         142.6809  142.2359  161.7369 N.am    1  UNL1       -0.2660
     10 C         142.2298  141.5670  160.4724 C.3     1  UNL1        0.1236
     11 C         143.3188  141.7213  159.4525 C.ar    1  UNL1        0.0338
     12 C         143.7131  141.4032  158.0407 C.ar    1  UNL1        0.0991
     13 N         145.0810  141.9708  157.8023 N.ar    1  UNL1       -0.2265
     14 N         145.5321  142.6397  159.0669 N.ar    1  UNL1       -0.1679
     15 C         144.4430  142.4855  160.0868 C.ar    1  UNL1        0.0981
     16 C         144.0487  142.8036  161.4986 C.3     1  UNL1        0.1414
     17 C         145.8608  141.8846  156.5239 C.ar    1  UNL1        0.1102
     18 C         145.2558  141.2271  155.3191 C.ar    1  UNL1        0.0214
     19 C         146.0356  141.1409  154.0406 C.ar    1  UNL1        0.0017
     20 C         147.4206  141.7123  153.9670 C.ar    1  UNL1        0.0024
     21 C         148.0257  142.3699  155.1718 C.ar    1  UNL1        0.0312
     22 C         147.2459  142.4560  156.4502 C.ar    1  UNL1        0.1577
     23 F         147.8509  143.1136  157.6550 F       1  UNL1       -0.2026
     24 S         138.7824  138.5333  164.7240 S.O2    1  UNL1        0.0087
     25 O         138.1075  139.2965  165.8249 O.2     1  UNL1       -0.1686
     26 O         139.4574  137.7701  163.6231 O.2     1  UNL1       -0.1686
     27 C         137.6406  137.2179  166.6517 C.3     1  UNL1        0.0276
     28 C         138.5867  137.2576  165.4884 C.3     1  UNL1        0.1560
     29 O         139.5656  143.6361  161.6666 O.3     1  UNL1       -0.4702
     30 C         139.3914  144.9573  162.3552 C.3     1  UNL1        0.2599
     31 C         139.6609  146.2318  161.6116 C.3     1  UNL1        0.0566
     32 C         138.9477  145.0040  163.7872 C.3     1  UNL1        0.4340
     33 F         138.5040  145.0507  165.2194 F       1  UNL1       -0.1664
     34 F         137.5246  144.8146  163.3525 F       1  UNL1       -0.1664
     35 F         140.3707  145.1933  164.2220 F       1  UNL1       -0.1664
@<TRIPOS>BOND
     1    27    28    1
     2    28    24    1
     3    24    25    2
     4    24    26    2
     5    24     1    1
     6     1     2   ar
     7     2     3   ar
     8     3     4   ar
     9     4    29    1
    10    29    30    1
    11    30    31    1
    12    30    32    1
    13    32    33    1
    14    32    34    1
    15    32    35    1
    16     4     5   ar
    17     5     7    1
    18     7     8    2
    19     7     9   am
    20     9    10    1
    21    10    11    1
    22    11    12   ar
    23    12    13   ar
    24    13    17    1
    25    17    18   ar
    26    18    19   ar
    27    19    20   ar
    28    20    21   ar
    29    21    22   ar
    30    22    23    1
    31    13    14   ar
    32    14    15   ar
    33    15    16    1
    34     5     6   ar
    35     6     1   ar
    36    16     9    1
    37    15    11   ar
    38    22    17   ar
@<TRIPOS>MOLECULE
*****
 35 38 0 0 0
SMALL
GASTEIGER

@<TRIPOS>ATOM
      1 C         141.2780  141.2475  167.0039 C.ar    1  UNL1        0.1060
      2 C         140.0669  142.0730  166.6848 C.ar    1  UNL1        0.0215
      3 C         139.9342  142.7205  165.3383 C.ar    1  UNL1        0.0384
      4 C         141.0126  142.5425  164.3109 C.ar    1  UNL1        0.1432
      5 C         142.2237  141.7170  164.6301 C.ar    1  UNL1        0.0888
      6 C         142.3564  141.0695  165.9766 C.ar    1  UNL1        0.0259
      7 C         143.3020  141.5391  163.6027 C.2     1  UNL1        0.2525
      8 O         144.6325  142.2063  163.7886 O.2     1  UNL1       -0.2698
      9 N         143.0498  140.6939  162.3894 N.am    1  UNL1       -0.2660
     10 C         141.7764  139.9686  162.0693 C.3     1  UNL1        0.1236
     11 C         141.9664  139.2521  160.7652 C.ar    1  UNL1        0.0338
     12 C         141.2968  138.3610  159.7614 C.ar    1  UNL1        0.0991
     13 N         142.2737  138.0927  158.6552 N.ar    1  UNL1       -0.2265
     14 N         143.5471  138.8181  158.9753 N.ar    1  UNL1       -0.1679
     15 C         143.3572  139.5346  160.2794 C.ar    1  UNL1        0.0981
     16 C         144.0267  140.4257  161.2832 C.3     1  UNL1        0.1414
     17 C         142.0216  137.2476  157.4419 C.ar    1  UNL1        0.1102
     18 C         142.9412  136.1079  157.1174 C.ar    1  UNL1        0.0214
     19 C         142.6891  135.2627  155.9041 C.ar    1  UNL1        0.0017
     20 C         141.5173  135.5573  155.0153 C.ar    1  UNL1        0.0024
     21 C         140.5976  136.6970  155.3398 C.ar    1  UNL1        0.0312
     22 C         140.8497  137.5421  156.5530 C.ar    1  UNL1        0.1577
     23 F         139.9300  138.6818  156.8775 F       1  UNL1       -0.2026
     24 S         141.4108  140.6000  168.3505 S.O2    1  UNL1        0.0087
     25 O         142.8649  140.3453  168.0846 O.2     1  UNL1       -0.1686
     26 O         139.9567  140.8548  168.6164 O.2     1  UNL1       -0.1686
     27 C         142.5033  138.8163  169.8915 C.3     1  UNL1        0.0276
     28 C         141.5436  139.9525  169.6970 C.3     1  UNL1        0.1560
     29 O         140.8798  143.1900  162.9644 O.3     1  UNL1       -0.4702
     30 C         141.2540  144.6314  162.7852 C.3     1  UNL1        0.2599
     31 C         140.2121  145.6323  162.3818 C.3     1  UNL1        0.0566
     32 C         142.6702  145.0721  163.0093 C.3     1  UNL1        0.4340
     33 F         144.0864  145.5129  163.2334 F       1  UNL1       -0.1664
     34 F         143.1047  144.2878  161.8068 F       1  UNL1       -0.1664
     35 F         142.2358  145.8565  164.2117 F       1  UNL1       -0.1664
@<TRIPOS>BOND
     1    27    28    1
     2    28    24    1
     3    24    25    2
     4    24    26    2
     5    24     1    1
     6     1     2   ar
     7     2     3   ar
     8     3     4   ar
     9     4    29    1
    10    29    30    1
    11    30    31    1
    12    30    32    1
    13    32    33    1
    14    32    34    1
    15    32    35    1
    16     4     5   ar
    17     5     7    1
    18     7     8    2
    19     7     9   am
    20     9    10    1
    21    10    11    1
    22    11    12   ar
    23    12    13   ar
    24    13    17    1
    25    17    18   ar
    26    18    19   ar
    27    19    20   ar
    28    20    21   ar
    29    21    22   ar
    30    22    23    1
    31    13    14   ar
    32    14    15   ar
    33    15    16    1
    34     5     6   ar
    35     6     1   ar
    36    16     9    1
    37    15    11   ar
    38    22    17   ar
