@<TRIPOS>MOLECULE
*****
 33 36 0 0 0
SMALL
GASTEIGER

@<TRIPOS>ATOM
      1 N         140.4185  140.0711  166.9578 N.pl3   1  UNL1       -0.3052
      2 C         139.1768  139.5793  166.2749 C.3     1  UNL1        0.0909
      3 C         139.2804  138.5937  165.1490 C.3     1  UNL1        0.0229
      4 C         140.6258  138.0999  164.7058 C.3     1  UNL1        0.0194
      5 C         141.8675  138.5918  165.3887 C.3     1  UNL1        0.0229
      6 C         141.7638  139.5774  166.5148 C.3     1  UNL1        0.0909
      7 C         140.4307  142.5264  167.8072 C.ar    1  UNL1        0.1523
      8 C         140.3270  143.5119  168.9332 C.ar    1  UNL1        0.0382
      9 C         140.1074  143.0278  170.3359 C.ar    1  UNL1        0.0032
     10 C         139.9915  141.5581  170.6125 C.ar    1  UNL1        0.0015
     11 C         140.0952  140.5726  169.4865 C.ar    1  UNL1        0.0176
     12 C         140.3148  141.0567  168.0839 C.ar    1  UNL1        0.0823
     13 O         140.6503  143.0106  166.4046 O.3     1  UNL1       -0.4681
     14 C         139.4812  143.1939  165.4828 C.3     1  UNL1        0.2469
     15 O         138.3175  145.4102  166.1781 O.co2   1  UNL1       -0.5454
     16 C         139.0058  144.5746  165.1399 C.2     1  UNL1        0.0940
     17 O         139.2187  145.1197  163.7587 O.co2   1  UNL1       -0.5454
     18 C         140.7294  137.1144  163.5798 C.3     1  UNL1        0.0722
     19 N         140.7731  137.5986  162.1608 N.3     1  UNL1       -0.2724
     20 C         139.5003  137.9462  161.4475 C.3     1  UNL1        0.0758
     21 C         139.5440  138.4305  160.0285 C.3     1  UNL1        0.0609
     22 C         140.8605  138.5672  159.3228 C.3     1  UNL1        0.1687
     23 C         142.1334  138.2196  160.0362 C.3     1  UNL1        0.0609
     24 C         142.0897  137.7353  161.4552 C.3     1  UNL1        0.0758
     25 O         140.9042  139.0515  157.9038 O.3     1  UNL1       -0.4790
     26 C         140.8990  138.0648  156.7741 C.ar    1  UNL1        0.1393
     27 C         139.6275  137.7839  156.0295 C.ar    1  UNL1        0.0378
     28 C         139.6223  136.7972  154.8997 C.ar    1  UNL1        0.0154
     29 C         140.8885  136.0913  154.5146 C.ar    1  UNL1        0.0684
     30 CL        140.8833  135.1045  153.3848 Cl      1  UNL1       -0.0814
     31 C         142.1600  136.3721  155.2592 C.ar    1  UNL1        0.0712
     32 CL        143.4262  135.6662  154.8741 Cl      1  UNL1       -0.0813
     33 C         142.1653  137.3588  156.3890 C.ar    1  UNL1        0.0491
@<TRIPOS>UNITY_ATOM_ATTR
15 1
charge -1
@<TRIPOS>BOND
     1    15    16   ar
     2    16    17   ar
     3    16    14    1
     4    14    13    1
     5    13     7    1
     6     7     8   ar
     7     8     9   ar
     8     9    10   ar
     9    10    11   ar
    10    11    12   ar
    11    12     1    1
    12     1     2    1
    13     2     3    1
    14     3     4    1
    15     4    18    1
    16    18    19    1
    17    19    20    1
    18    20    21    1
    19    21    22    1
    20    22    25    1
    21    25    26    1
    22    26    27   ar
    23    27    28   ar
    24    28    29   ar
    25    29    30    1
    26    29    31   ar
    27    31    32    1
    28    31    33   ar
    29    22    23    1
    30    23    24    1
    31     4     5    1
    32     5     6    1
    33    12     7   ar
    34     6     1    1
    35    24    19    1
    36    33    26   ar
@<TRIPOS>MOLECULE
*****
 33 36 0 0 0
SMALL
GASTEIGER

@<TRIPOS>ATOM
      1 N         142.7734  141.3390  166.6915 N.pl3   1  UNL1       -0.3052
      2 C         143.5755  142.0416  165.6365 C.3     1  UNL1        0.0909
      3 C         144.1201  141.2707  164.4707 C.3     1  UNL1        0.0229
      4 C         143.8626  139.7971  164.3599 C.3     1  UNL1        0.0194
      5 C         143.0605  139.0945  165.4149 C.3     1  UNL1        0.0229
      6 C         142.5159  139.8655  166.5807 C.3     1  UNL1        0.0909
      7 C         140.8501  142.6969  167.7901 C.ar    1  UNL1        0.1523
      8 C         140.3056  143.4678  168.9559 C.ar    1  UNL1        0.0382
      9 C         141.1398  143.6519  170.1889 C.ar    1  UNL1        0.0032
     10 C         142.5186  143.0650  170.2560 C.ar    1  UNL1        0.0015
     11 C         143.0631  142.2941  169.0903 C.ar    1  UNL1        0.0176
     12 C         142.2288  142.1100  167.8573 C.ar    1  UNL1        0.0823
     13 O         140.0159  142.5128  166.5572 O.3     1  UNL1       -0.4681
     14 C         140.0991  143.5098  165.4396 C.3     1  UNL1        0.2469
     15 O         138.2842  144.2926  163.7533 O.co2   1  UNL1       -0.5454
     16 C         138.9146  144.3700  165.1121 C.2     1  UNL1        0.0940
     17 O         138.3606  145.3076  166.1437 O.co2   1  UNL1       -0.5454
     18 C         144.4072  139.0262  163.1941 C.3     1  UNL1        0.0722
     19 N         143.6463  138.9830  161.9022 N.3     1  UNL1       -0.2724
     20 C         142.3290  138.2691  161.8311 C.3     1  UNL1        0.0758
     21 C         141.5681  138.2259  160.5391 C.3     1  UNL1        0.0609
     22 C         142.1244  138.8967  159.3183 C.3     1  UNL1        0.1687
     23 C         143.4416  139.6106  159.3894 C.3     1  UNL1        0.0609
     24 C         144.2026  139.6538  160.6813 C.3     1  UNL1        0.0758
     25 O         141.3635  138.8535  158.0263 O.3     1  UNL1       -0.4790
     26 C         141.4464  137.6409  157.1473 C.ar    1  UNL1        0.1393
     27 C         140.3708  137.3722  156.1367 C.ar    1  UNL1        0.0378
     28 C         140.4537  136.1597  155.2576 C.ar    1  UNL1        0.0154
     29 C         141.6121  135.2158  155.3890 C.ar    1  UNL1        0.0684
     30 CL        141.6950  134.0032  154.5099 Cl      1  UNL1       -0.0814
     31 C         142.6876  135.4845  156.3995 C.ar    1  UNL1        0.0712
     32 CL        143.8459  134.5406  156.5309 Cl      1  UNL1       -0.0813
     33 C         142.6047  136.6971  157.2787 C.ar    1  UNL1        0.0491
@<TRIPOS>UNITY_ATOM_ATTR
15 1
charge -1
@<TRIPOS>BOND
     1    15    16   ar
     2    16    17   ar
     3    16    14    1
     4    14    13    1
     5    13     7    1
     6     7     8   ar
     7     8     9   ar
     8     9    10   ar
     9    10    11   ar
    10    11    12   ar
    11    12     1    1
    12     1     2    1
    13     2     3    1
    14     3     4    1
    15     4    18    1
    16    18    19    1
    17    19    20    1
    18    20    21    1
    19    21    22    1
    20    22    25    1
    21    25    26    1
    22    26    27   ar
    23    27    28   ar
    24    28    29   ar
    25    29    30    1
    26    29    31   ar
    27    31    32    1
    28    31    33   ar
    29    22    23    1
    30    23    24    1
    31     4     5    1
    32     5     6    1
    33    12     7   ar
    34     6     1    1
    35    24    19    1
    36    33    26   ar
@<TRIPOS>MOLECULE
*****
 33 36 0 0 0
SMALL
GASTEIGER

@<TRIPOS>ATOM
      1 N         140.2848  142.2752  159.1086 N.pl3   1  UNL1       -0.3052
      2 C         141.1391  141.3941  159.9711 C.3     1  UNL1        0.0909
      3 C         140.5104  140.2955  160.7758 C.3     1  UNL1        0.0229
      4 C         139.0273  140.0779  160.7180 C.3     1  UNL1        0.0194
      5 C         138.1731  140.9589  159.8556 C.3     1  UNL1        0.0229
      6 C         138.8018  142.0577  159.0508 C.3     1  UNL1        0.0909
      7 C         140.6285  144.8076  158.6404 C.ar    1  UNL1        0.1523
      8 C         141.2573  145.9062  157.8356 C.ar    1  UNL1        0.0382
      9 C         142.1711  145.5712  156.6943 C.ar    1  UNL1        0.0032
     10 C         142.4563  144.1375  156.3578 C.ar    1  UNL1        0.0015
     11 C         141.8275  143.0389  157.1625 C.ar    1  UNL1        0.0176
     12 C         140.9136  143.3739  158.3038 C.ar    1  UNL1        0.0823
     13 O         139.7146  145.1426  159.7817 O.3     1  UNL1       -0.4681
     14 C         140.2745  145.3313  161.1603 C.3     1  UNL1        0.2469
     15 O         138.1281  144.2838  162.1829 O.co2   1  UNL1       -0.5454
     16 C         139.5116  144.8376  162.3538 C.2     1  UNL1        0.0940
     17 O         140.1323  144.8976  163.7180 O.co2   1  UNL1       -0.5454
     18 C         138.3986  138.9792  161.5228 C.3     1  UNL1        0.0722
     19 N         138.4820  139.0044  163.0202 N.3     1  UNL1       -0.2724
     20 C         138.9446  137.7881  163.7662 C.3     1  UNL1        0.0758
     21 C         139.0280  137.8133  165.2637 C.3     1  UNL1        0.0609
     22 C         138.6486  139.0547  166.0152 C.3     1  UNL1        0.1687
     23 C         138.1859  140.2710  165.2692 C.3     1  UNL1        0.0609
     24 C         138.1026  140.2458  163.7717 C.3     1  UNL1        0.0758
     25 O         138.7319  139.0799  167.5127 O.3     1  UNL1       -0.4790
     26 C         139.5936  140.0980  168.1989 C.ar    1  UNL1        0.1393
     27 C         139.2145  140.6081  169.5577 C.ar    1  UNL1        0.0378
     28 C         140.0762  141.6262  170.2438 C.ar    1  UNL1        0.0154
     29 C         141.3170  142.1343  169.5713 C.ar    1  UNL1        0.0684
     30 CL        142.1787  143.1525  170.2576 Cl      1  UNL1       -0.0814
     31 C         141.6961  141.6243  168.2126 C.ar    1  UNL1        0.0712
     32 CL        142.9369  142.1325  167.5401 Cl      1  UNL1       -0.0813
     33 C         140.8344  140.6062  167.5263 C.ar    1  UNL1        0.0491
@<TRIPOS>UNITY_ATOM_ATTR
15 1
charge -1
@<TRIPOS>BOND
     1    15    16   ar
     2    16    17   ar
     3    16    14    1
     4    14    13    1
     5    13     7    1
     6     7     8   ar
     7     8     9   ar
     8     9    10   ar
     9    10    11   ar
    10    11    12   ar
    11    12     1    1
    12     1     2    1
    13     2     3    1
    14     3     4    1
    15     4    18    1
    16    18    19    1
    17    19    20    1
    18    20    21    1
    19    21    22    1
    20    22    25    1
    21    25    26    1
    22    26    27   ar
    23    27    28   ar
    24    28    29   ar
    25    29    30    1
    26    29    31   ar
    27    31    32    1
    28    31    33   ar
    29    22    23    1
    30    23    24    1
    31     4     5    1
    32     5     6    1
    33    12     7   ar
    34     6     1    1
    35    24    19    1
    36    33    26   ar
@<TRIPOS>MOLECULE
*****
 33 36 0 0 0
SMALL
GASTEIGER

@<TRIPOS>ATOM
      1 N         141.2772  139.2022  163.4763 N.pl3   1  UNL1       -0.3052
      2 C         141.6263  140.3492  162.5750 C.3     1  UNL1        0.0909
      3 C         141.1697  140.3463  161.1462 C.3     1  UNL1        0.0229
      4 C         140.3640  139.1962  160.6186 C.3     1  UNL1        0.0194
      5 C         140.0149  138.0492  161.5199 C.3     1  UNL1        0.0229
      6 C         140.4715  138.0522  162.9488 C.3     1  UNL1        0.0909
      7 C         140.9153  139.9000  165.9526 C.ar    1  UNL1        0.1523
      8 C         141.3720  139.9030  167.3814 C.ar    1  UNL1        0.0382
      9 C         142.6471  139.2111  167.7627 C.ar    1  UNL1        0.0032
     10 C         143.4655  138.5162  166.7152 C.ar    1  UNL1        0.0015
     11 C         143.0089  138.5133  165.2864 C.ar    1  UNL1        0.0176
     12 C         141.7338  139.2052  164.9051 C.ar    1  UNL1        0.0823
     13 O         139.6402  140.5919  165.5713 O.3     1  UNL1       -0.4681
     14 C         138.3622  139.8121  165.4796 C.3     1  UNL1        0.2469
     15 O         138.4373  137.2214  165.6603 O.co2   1  UNL1       -0.5454
     16 C         138.1876  138.5607  166.2879 C.2     1  UNL1        0.0940
     17 O         137.7631  138.6485  167.7240 O.co2   1  UNL1       -0.5454
     18 C         139.9074  139.1933  159.1898 C.3     1  UNL1        0.0722
     19 N         140.5751  138.2953  158.1910 N.3     1  UNL1       -0.2724
     20 C         142.0368  137.9847  158.3209 C.3     1  UNL1        0.0758
     21 C         142.7044  137.0866  157.3221 C.3     1  UNL1        0.0609
     22 C         141.9104  136.4992  156.1932 C.3     1  UNL1        0.1687
     23 C         140.4487  136.8098  156.0632 C.3     1  UNL1        0.0609
     24 C         139.7811  137.7079  157.0621 C.3     1  UNL1        0.0758
     25 O         142.5781  135.6012  155.1943 O.3     1  UNL1       -0.4790
     26 C         142.6377  134.1223  155.4375 C.ar    1  UNL1        0.1393
     27 C         143.8233  133.5241  156.1351 C.ar    1  UNL1        0.0378
     28 C         143.8829  132.0451  156.3783 C.ar    1  UNL1        0.0154
     29 C         142.7570  131.1643  155.9239 C.ar    1  UNL1        0.0684
     30 CL        142.8166  129.6853  156.1671 Cl      1  UNL1       -0.0814
     31 C         141.5714  131.7625  155.2263 C.ar    1  UNL1        0.0712
     32 CL        140.4455  130.8817  154.7719 Cl      1  UNL1       -0.0813
     33 C         141.5118  133.2415  154.9831 C.ar    1  UNL1        0.0491
@<TRIPOS>UNITY_ATOM_ATTR
15 1
charge -1
@<TRIPOS>BOND
     1    15    16   ar
     2    16    17   ar
     3    16    14    1
     4    14    13    1
     5    13     7    1
     6     7     8   ar
     7     8     9   ar
     8     9    10   ar
     9    10    11   ar
    10    11    12   ar
    11    12     1    1
    12     1     2    1
    13     2     3    1
    14     3     4    1
    15     4    18    1
    16    18    19    1
    17    19    20    1
    18    20    21    1
    19    21    22    1
    20    22    25    1
    21    25    26    1
    22    26    27   ar
    23    27    28   ar
    24    28    29   ar
    25    29    30    1
    26    29    31   ar
    27    31    32    1
    28    31    33   ar
    29    22    23    1
    30    23    24    1
    31     4     5    1
    32     5     6    1
    33    12     7   ar
    34     6     1    1
    35    24    19    1
    36    33    26   ar
@<TRIPOS>MOLECULE
*****
 33 36 0 0 0
SMALL
GASTEIGER

@<TRIPOS>ATOM
      1 N         141.1346  142.8031  166.3667 N.pl3   1  UNL1       -0.3052
      2 C         142.5762  142.5715  166.0230 C.3     1  UNL1        0.0909
      3 C         143.1429  143.1294  164.7511 C.3     1  UNL1        0.0229
      4 C         142.2680  143.9188  163.8230 C.3     1  UNL1        0.0194
      5 C         140.8264  144.1503  164.1667 C.3     1  UNL1        0.0229
      6 C         140.2597  143.5924  165.4386 C.3     1  UNL1        0.0909
      7 C         139.9700  140.8696  167.6534 C.ar    1  UNL1        0.1523
      8 C         139.4034  140.3118  168.9253 C.ar    1  UNL1        0.0382
      9 C         139.4346  141.1296  170.1824 C.ar    1  UNL1        0.0032
     10 C         140.0325  142.5052  170.1676 C.ar    1  UNL1        0.0015
     11 C         140.5991  143.0630  168.8957 C.ar    1  UNL1        0.0176
     12 C         140.5679  142.2452  167.6386 C.ar    1  UNL1        0.0823
     13 O         139.9388  140.0518  166.3964 O.3     1  UNL1       -0.4681
     14 C         138.6276  139.5814  165.8400 C.3     1  UNL1        0.2469
     15 O         138.6045  137.0142  165.4417 O.co2   1  UNL1       -0.5454
     16 C         138.1108  138.2173  166.1893 C.2     1  UNL1        0.0940
     17 O         137.1004  138.0562  167.2862 O.co2   1  UNL1       -0.5454
     18 C         142.8347  144.4766  162.5511 C.3     1  UNL1        0.0722
     19 N         142.0337  144.4186  161.2842 N.3     1  UNL1       -0.2724
     20 C         142.3208  143.3581  160.2632 C.3     1  UNL1        0.0758
     21 C         141.5198  143.3001  158.9963 C.3     1  UNL1        0.0609
     22 C         140.4316  144.3028  158.7505 C.3     1  UNL1        0.1687
     23 C         140.1445  145.3634  159.7715 C.3     1  UNL1        0.0609
     24 C         140.9455  145.4213  161.0384 C.3     1  UNL1        0.0758
     25 O         139.6306  144.2448  157.4836 O.3     1  UNL1       -0.4790
     26 C         139.9840  145.1377  156.3313 C.ar    1  UNL1        0.1393
     27 C         140.9537  144.6673  155.2879 C.ar    1  UNL1        0.0378
     28 C         141.3071  145.5601  154.1356 C.ar    1  UNL1        0.0154
     29 C         140.6910  146.9234  154.0266 C.ar    1  UNL1        0.0684
     30 CL        141.0445  147.8162  152.8742 Cl      1  UNL1       -0.0814
     31 C         139.7214  147.3938  155.0699 C.ar    1  UNL1        0.0712
     32 CL        139.1052  148.7570  154.9609 Cl      1  UNL1       -0.0813
     33 C         139.3679  146.5009  156.2223 C.ar    1  UNL1        0.0491
@<TRIPOS>UNITY_ATOM_ATTR
15 1
charge -1
@<TRIPOS>BOND
     1    15    16   ar
     2    16    17   ar
     3    16    14    1
     4    14    13    1
     5    13     7    1
     6     7     8   ar
     7     8     9   ar
     8     9    10   ar
     9    10    11   ar
    10    11    12   ar
    11    12     1    1
    12     1     2    1
    13     2     3    1
    14     3     4    1
    15     4    18    1
    16    18    19    1
    17    19    20    1
    18    20    21    1
    19    21    22    1
    20    22    25    1
    21    25    26    1
    22    26    27   ar
    23    27    28   ar
    24    28    29   ar
    25    29    30    1
    26    29    31   ar
    27    31    32    1
    28    31    33   ar
    29    22    23    1
    30    23    24    1
    31     4     5    1
    32     5     6    1
    33    12     7   ar
    34     6     1    1
    35    24    19    1
    36    33    26   ar
@<TRIPOS>MOLECULE
*****
 33 36 0 0 0
SMALL
GASTEIGER

@<TRIPOS>ATOM
      1 N         141.2335  139.6377  166.7512 N.pl3   1  UNL1       -0.3052
      2 C         141.9608  138.8185  165.7266 C.3     1  UNL1        0.0909
      3 C         141.2006  138.1681  164.6090 C.3     1  UNL1        0.0229
      4 C         139.7130  138.3369  164.5161 C.3     1  UNL1        0.0194
      5 C         138.9856  139.1561  165.5407 C.3     1  UNL1        0.0229
      6 C         139.7459  139.8065  166.6583 C.3     1  UNL1        0.0909
      7 C         142.5976  141.6473  167.6737 C.ar    1  UNL1        0.1523
      8 C         143.3579  142.2976  168.7913 C.ar    1  UNL1        0.0382
      9 C         143.5142  141.5889  170.1040 C.ar    1  UNL1        0.0032
     10 C         142.9103  140.2298  170.2992 C.ar    1  UNL1        0.0015
     11 C         142.1501  139.5795  169.1816 C.ar    1  UNL1        0.0176
     12 C         141.9937  140.2882  167.8689 C.ar    1  UNL1        0.0823
     13 O         142.4413  142.3560  166.3610 O.3     1  UNL1       -0.4681
     14 C         143.5762  142.3774  165.3804 C.3     1  UNL1        0.2469
     15 O         145.2672  144.1957  166.1447 O.co2   1  UNL1       -0.5454
     16 C         144.3166  143.6553  165.1180 C.2     1  UNL1        0.0940
     17 O         144.1063  144.3928  163.8288 O.co2   1  UNL1       -0.5454
     18 C         138.9528  137.6864  163.3985 C.3     1  UNL1        0.0722
     19 N         138.8172  138.3845  162.0778 N.3     1  UNL1       -0.2724
     20 C         139.7511  138.0493  160.9529 C.3     1  UNL1        0.0758
     21 C         139.6155  138.7474  159.6322 C.3     1  UNL1        0.0609
     22 C         138.5461  139.7807  159.4363 C.3     1  UNL1        0.1687
     23 C         137.6122  140.1160  160.5612 C.3     1  UNL1        0.0609
     24 C         137.7477  139.4179  161.8819 C.3     1  UNL1        0.0758
     25 O         138.4105  140.4788  158.1156 O.3     1  UNL1       -0.4790
     26 C         138.9878  141.8507  157.9297 C.ar    1  UNL1        0.1393
     27 C         138.5296  142.7088  156.7878 C.ar    1  UNL1        0.0378
     28 C         139.1069  144.0807  156.6019 C.ar    1  UNL1        0.0154
     29 C         140.1423  144.5945  157.5578 C.ar    1  UNL1        0.0684
     30 CL        140.7196  145.9665  157.3718 Cl      1  UNL1       -0.0814
     31 C         140.6005  143.7365  158.6996 C.ar    1  UNL1        0.0712
     32 CL        141.6360  144.2504  159.6555 Cl      1  UNL1       -0.0813
     33 C         140.0232  142.3646  158.8856 C.ar    1  UNL1        0.0491
@<TRIPOS>UNITY_ATOM_ATTR
15 1
charge -1
@<TRIPOS>BOND
     1    15    16   ar
     2    16    17   ar
     3    16    14    1
     4    14    13    1
     5    13     7    1
     6     7     8   ar
     7     8     9   ar
     8     9    10   ar
     9    10    11   ar
    10    11    12   ar
    11    12     1    1
    12     1     2    1
    13     2     3    1
    14     3     4    1
    15     4    18    1
    16    18    19    1
    17    19    20    1
    18    20    21    1
    19    21    22    1
    20    22    25    1
    21    25    26    1
    22    26    27   ar
    23    27    28   ar
    24    28    29   ar
    25    29    30    1
    26    29    31   ar
    27    31    32    1
    28    31    33   ar
    29    22    23    1
    30    23    24    1
    31     4     5    1
    32     5     6    1
    33    12     7   ar
    34     6     1    1
    35    24    19    1
    36    33    26   ar
@<TRIPOS>MOLECULE
*****
 33 36 0 0 0
SMALL
GASTEIGER

@<TRIPOS>ATOM
      1 N         142.3451  140.2117  159.0074 N.pl3   1  UNL1       -0.3052
      2 C         142.5032  139.0290  159.9164 C.3     1  UNL1        0.0909
      3 C         141.3175  138.4926  160.6623 C.3     1  UNL1        0.0229
      4 C         139.9737  139.1389  160.4992 C.3     1  UNL1        0.0194
      5 C         139.8156  140.3216  159.5902 C.3     1  UNL1        0.0229
      6 C         141.0014  140.8580  158.8443 C.3     1  UNL1        0.0909
      7 C         144.2887  141.9237  158.8033 C.ar    1  UNL1        0.1523
      8 C         145.4744  142.4600  158.0574 C.ar    1  UNL1        0.0382
      9 C         145.9023  141.8207  156.7697 C.ar    1  UNL1        0.0032
     10 C         145.1445  140.6451  156.2279 C.ar    1  UNL1        0.0015
     11 C         143.9588  140.1088  156.9738 C.ar    1  UNL1        0.0176
     12 C         143.5309  140.7481  158.2615 C.ar    1  UNL1        0.0823
     13 O         143.8608  142.5630  160.0910 O.3     1  UNL1       -0.4681
     14 C         144.7322  142.4564  161.3072 C.3     1  UNL1        0.2469
     15 O         144.6980  142.8020  163.8819 O.co2   1  UNL1       -0.5454
     16 C         144.4696  143.3312  162.4971 C.2     1  UNL1        0.0940
     17 O         143.9786  144.7351  162.3021 O.co2   1  UNL1       -0.5454
     18 C         138.7880  138.6025  161.2451 C.3     1  UNL1        0.0722
     19 N         138.7220  138.7275  162.7385 N.3     1  UNL1       -0.2724
     20 C         138.2252  139.9973  163.3636 C.3     1  UNL1        0.0758
     21 C         138.1593  140.1222  164.8569 C.3     1  UNL1        0.0609
     22 C         138.5902  138.9775  165.7251 C.3     1  UNL1        0.1687
     23 C         139.0870  137.7077  165.1000 C.3     1  UNL1        0.0609
     24 C         139.1529  137.5827  163.6066 C.3     1  UNL1        0.0758
     25 O         138.5242  139.1025  167.2184 O.3     1  UNL1       -0.4790
     26 C         139.4785  140.0087  167.9381 C.ar    1  UNL1        0.1393
     27 C         139.2150  140.3960  169.3631 C.ar    1  UNL1        0.0378
     28 C         140.1693  141.3023  170.0827 C.ar    1  UNL1        0.0154
     29 C         141.3871  141.8214  169.3774 C.ar    1  UNL1        0.0684
     30 CL        142.3415  142.7277  170.0972 Cl      1  UNL1       -0.0814
     31 C         141.6507  141.4341  167.9525 C.ar    1  UNL1        0.0712
     32 CL        142.8685  141.9531  167.2472 Cl      1  UNL1       -0.0813
     33 C         140.6964  140.5278  167.2328 C.ar    1  UNL1        0.0491
@<TRIPOS>UNITY_ATOM_ATTR
15 1
charge -1
@<TRIPOS>BOND
     1    15    16   ar
     2    16    17   ar
     3    16    14    1
     4    14    13    1
     5    13     7    1
     6     7     8   ar
     7     8     9   ar
     8     9    10   ar
     9    10    11   ar
    10    11    12   ar
    11    12     1    1
    12     1     2    1
    13     2     3    1
    14     3     4    1
    15     4    18    1
    16    18    19    1
    17    19    20    1
    18    20    21    1
    19    21    22    1
    20    22    25    1
    21    25    26    1
    22    26    27   ar
    23    27    28   ar
    24    28    29   ar
    25    29    30    1
    26    29    31   ar
    27    31    32    1
    28    31    33   ar
    29    22    23    1
    30    23    24    1
    31     4     5    1
    32     5     6    1
    33    12     7   ar
    34     6     1    1
    35    24    19    1
    36    33    26   ar
@<TRIPOS>MOLECULE
*****
 33 36 0 0 0
SMALL
GASTEIGER

@<TRIPOS>ATOM
      1 N         139.6186  142.4184  159.1828 N.pl3   1  UNL1       -0.3052
      2 C         138.4829  142.5571  160.1528 C.3     1  UNL1        0.0909
      3 C         138.0473  141.3780  160.9713 C.3     1  UNL1        0.0229
      4 C         138.7475  140.0601  160.8198 C.3     1  UNL1        0.0194
      5 C         139.8833  139.9213  159.8499 C.3     1  UNL1        0.0229
      6 C         140.3188  141.1005  159.0314 C.3     1  UNL1        0.0909
      7 C         141.0959  144.5364  158.8966 C.ar    1  UNL1        0.1523
      8 C         141.5314  145.7155  158.0781 C.ar    1  UNL1        0.0382
      9 C         140.9251  145.9558  156.7273 C.ar    1  UNL1        0.0032
     10 C         139.8834  145.0170  156.1950 C.ar    1  UNL1        0.0015
     11 C         139.4479  143.8379  157.0135 C.ar    1  UNL1        0.0176
     12 C         140.0542  143.5976  158.3643 C.ar    1  UNL1        0.0823
     13 O         141.7021  144.2961  160.2475 O.3     1  UNL1       -0.4681
     14 C         141.3606  145.2003  161.3944 C.3     1  UNL1        0.2469
     15 O         139.2128  146.5613  160.8609 O.co2   1  UNL1       -0.5454
     16 C         139.9273  145.5327  161.6864 C.2     1  UNL1        0.0940
     17 O         139.2085  144.8365  162.8038 O.co2   1  UNL1       -0.5454
     18 C         138.3120  138.8810  161.6383 C.3     1  UNL1        0.0722
     19 N         138.4062  138.9307  163.1345 N.3     1  UNL1       -0.2724
     20 C         138.8735  137.7265  163.8970 C.3     1  UNL1        0.0758
     21 C         138.9677  137.7762  165.3932 C.3     1  UNL1        0.0609
     22 C         138.5946  139.0301  166.1270 C.3     1  UNL1        0.1687
     23 C         138.1273  140.2343  165.3645 C.3     1  UNL1        0.0609
     24 C         138.0331  140.1846  163.8683 C.3     1  UNL1        0.0758
     25 O         138.6888  139.0798  167.6232 O.3     1  UNL1       -0.4790
     26 C         139.5852  140.0838  168.2853 C.ar    1  UNL1        0.1393
     27 C         139.2352  140.6231  169.6406 C.ar    1  UNL1        0.0378
     28 C         140.1316  141.6271  170.3027 C.ar    1  UNL1        0.0154
     29 C         141.3780  142.0918  169.6096 C.ar    1  UNL1        0.0684
     30 CL        142.2744  143.0959  170.2718 Cl      1  UNL1       -0.0814
     31 C         141.7281  141.5526  168.2544 C.ar    1  UNL1        0.0712
     32 CL        142.9745  142.0173  167.5613 Cl      1  UNL1       -0.0813
     33 C         140.8317  140.5485  167.5922 C.ar    1  UNL1        0.0491
@<TRIPOS>UNITY_ATOM_ATTR
15 1
charge -1
@<TRIPOS>BOND
     1    15    16   ar
     2    16    17   ar
     3    16    14    1
     4    14    13    1
     5    13     7    1
     6     7     8   ar
     7     8     9   ar
     8     9    10   ar
     9    10    11   ar
    10    11    12   ar
    11    12     1    1
    12     1     2    1
    13     2     3    1
    14     3     4    1
    15     4    18    1
    16    18    19    1
    17    19    20    1
    18    20    21    1
    19    21    22    1
    20    22    25    1
    21    25    26    1
    22    26    27   ar
    23    27    28   ar
    24    28    29   ar
    25    29    30    1
    26    29    31   ar
    27    31    32    1
    28    31    33   ar
    29    22    23    1
    30    23    24    1
    31     4     5    1
    32     5     6    1
    33    12     7   ar
    34     6     1    1
    35    24    19    1
    36    33    26   ar
@<TRIPOS>MOLECULE
*****
 33 36 0 0 0
SMALL
GASTEIGER

@<TRIPOS>ATOM
      1 N         141.5417  142.4792  166.5746 N.pl3   1  UNL1       -0.3052
      2 C         143.0294  142.3061  166.4922 C.3     1  UNL1        0.0909
      3 C         143.7524  142.6277  165.2179 C.3     1  UNL1        0.0229
      4 C         142.9877  143.1223  164.0260 C.3     1  UNL1        0.0194
      5 C         141.5000  143.2954  164.1084 C.3     1  UNL1        0.0229
      6 C         140.7770  142.9739  165.3827 C.3     1  UNL1        0.0909
      7 C         140.2545  140.7848  168.0653 C.ar    1  UNL1        0.1523
      8 C         139.5316  140.4633  169.3396 C.ar    1  UNL1        0.0382
      9 C         139.3727  141.5147  170.3976 C.ar    1  UNL1        0.0032
     10 C         139.9369  142.8876  170.1812 C.ar    1  UNL1        0.0015
     11 C         140.6598  143.2091  168.9069 C.ar    1  UNL1        0.0176
     12 C         140.8187  142.1577  167.8490 C.ar    1  UNL1        0.0823
     13 O         140.4134  139.7334  167.0073 O.3     1  UNL1       -0.4681
     14 C         139.3379  139.5337  165.9809 C.3     1  UNL1        0.2469
     15 O         137.2248  138.5024  167.0858 O.co2   1  UNL1       -0.5454
     16 C         138.3687  138.3975  166.1214 C.2     1  UNL1        0.0940
     17 O         138.5436  137.1564  165.2973 O.co2   1  UNL1       -0.5454
     18 C         143.7107  143.4438  162.7517 C.3     1  UNL1        0.0722
     19 N         143.8016  142.4176  161.6614 N.3     1  UNL1       -0.2724
     20 C         143.9436  142.8518  160.2327 C.3     1  UNL1        0.0758
     21 C         144.0345  141.8256  159.1425 C.3     1  UNL1        0.0609
     22 C         143.9832  140.3652  159.4809 C.3     1  UNL1        0.1687
     23 C         143.8412  139.9310  160.9097 C.3     1  UNL1        0.0609
     24 C         143.7503  140.9572  161.9999 C.3     1  UNL1        0.0758
     25 O         144.0741  139.3390  158.3907 O.3     1  UNL1       -0.4790
     26 C         142.8229  138.7758  157.7847 C.ar    1  UNL1        0.1393
     27 C         141.5533  139.5744  157.8072 C.ar    1  UNL1        0.0378
     28 C         140.3021  139.0112  157.2012 C.ar    1  UNL1        0.0154
     29 C         140.3204  137.6494  156.5727 C.ar    1  UNL1        0.0684
     30 CL        139.0691  137.0862  155.9667 Cl      1  UNL1       -0.0814
     31 C         141.5899  136.8507  156.5502 C.ar    1  UNL1        0.0712
     32 CL        141.6082  135.4889  155.9216 Cl      1  UNL1       -0.0813
     33 C         142.8412  137.4139  157.1562 C.ar    1  UNL1        0.0491
@<TRIPOS>UNITY_ATOM_ATTR
15 1
charge -1
@<TRIPOS>BOND
     1    15    16   ar
     2    16    17   ar
     3    16    14    1
     4    14    13    1
     5    13     7    1
     6     7     8   ar
     7     8     9   ar
     8     9    10   ar
     9    10    11   ar
    10    11    12   ar
    11    12     1    1
    12     1     2    1
    13     2     3    1
    14     3     4    1
    15     4    18    1
    16    18    19    1
    17    19    20    1
    18    20    21    1
    19    21    22    1
    20    22    25    1
    21    25    26    1
    22    26    27   ar
    23    27    28   ar
    24    28    29   ar
    25    29    30    1
    26    29    31   ar
    27    31    32    1
    28    31    33   ar
    29    22    23    1
    30    23    24    1
    31     4     5    1
    32     5     6    1
    33    12     7   ar
    34     6     1    1
    35    24    19    1
    36    33    26   ar
