@<TRIPOS>MOLECULE
*****
 37 42 0 0 0
SMALL
GASTEIGER

@<TRIPOS>ATOM
      1 C         142.3090  140.4519  161.5159 C.ar    1  UNL1        0.1317
      2 C         143.0492  141.7445  161.3399 C.ar    1  UNL1        0.0346
      3 C         143.8452  141.9892  160.0922 C.ar    1  UNL1        0.0121
      4 C         143.9008  140.9411  159.0205 C.ar    1  UNL1        0.1076
      5 C         143.1604  139.6484  159.1966 C.ar    1  UNL1        0.1080
      6 N         142.3646  139.4038  160.4443 N.ar    1  UNL1       -0.2289
      7 C         140.0364  141.4088  169.4041 C.ar    1  UNL1        0.0142
      8 C         141.0474  141.9578  168.4416 C.ar    1  UNL1        0.0009
      9 C         141.0887  141.4546  167.0291 C.ar    1  UNL1       -0.0007
     10 C         140.1188  140.4025  166.5791 C.ar    1  UNL1        0.0200
     11 C         139.1078  139.8535  167.5417 C.ar    1  UNL1        0.0749
     12 C         139.0665  140.3566  168.9541 C.ar    1  UNL1        0.0074
     13 C         138.2854  138.8298  166.8164 C.2     1  UNL1        0.3411
     14 O         137.1583  138.0303  167.3995 O.2     1  UNL1       -0.2449
     15 O         138.7882  138.7461  165.4057 O.3     1  UNL1       -0.4484
     16 C         139.9214  139.7181  165.2590 C.3     1  UNL1        0.1583
     17 C         141.0314  140.7269  165.2632 C.3     1  UNL1        0.0659
     18 C         141.8273  140.9715  164.0155 C.3     1  UNL1        0.0961
     19 N         141.5131  140.2073  162.7636 N.pl3   1  UNL1       -0.2930
     20 C         140.4030  139.1985  162.7594 C.3     1  UNL1        0.0961
     21 C         139.6072  138.9539  164.0071 C.3     1  UNL1        0.0659
     22 O         139.2973  143.2015  171.1334 O.co2   1  UNL1       -0.5446
     23 C         139.9952  141.9120  170.8165 C.2     1  UNL1        0.0729
     24 O         140.6518  141.1257  171.9123 O.co2   1  UNL1       -0.5446
     25 C         144.6966  141.1857  157.7728 C.2     1  UNL1        0.3767
     26 N         145.8081  142.1808  157.6170 N.2     1  UNL1       -0.0308
     27 C         146.3192  142.0882  156.2098 C.2     1  UNL1        0.2320
     28 C         147.4063  142.8262  155.4862 C.2     1  UNL1        0.0537
     29 C         147.6977  142.5118  154.0487 C.2     1  UNL1        0.0714
     30 C         146.9020  141.4596  153.3348 C.2     1  UNL1       -0.0133
     31 C         145.8149  140.7216  154.0584 C.3     1  UNL1        0.1037
     32 C         145.5235  141.0359  155.4959 C.2     1  UNL1        0.2178
     33 N         144.5207  140.4781  156.4619 N.2     1  UNL1       -0.0347
     34 C         148.7848  143.2498  153.3250 C.3     1  UNL1        0.4184
     35 F         149.8719  143.9878  152.6014 F       1  UNL1       -0.1659
     36 F         149.5558  141.9714  153.1795 F       1  UNL1       -0.1659
     37 F         148.0138  144.5282  153.4706 F       1  UNL1       -0.1659
@<TRIPOS>UNITY_ATOM_ATTR
22 1
charge -1
@<TRIPOS>BOND
     1    22    23   ar
     2    23    24   ar
     3    23     7    1
     4     7     8   ar
     5     8     9   ar
     6     9    10   ar
     7    10    11   ar
     8    11    12   ar
     9    11    13    1
    10    13    14    2
    11    13    15    1
    12    15    16    1
    13    16    17    1
    14    17    18    1
    15    18    19    1
    16    19     1    1
    17     1     2   ar
    18     2     3   ar
    19     3     4   ar
    20     4    25    1
    21    25    26    2
    22    26    27    1
    23    27    28    2
    24    28    29    1
    25    29    34    1
    26    34    35    1
    27    34    36    1
    28    34    37    1
    29    29    30    2
    30    30    31    1
    31    31    32    1
    32    32    33    2
    33     4     5   ar
    34     5     6   ar
    35    19    20    1
    36    20    21    1
    37    12     7   ar
    38    21    16    1
    39    16    10    1
    40     6     1   ar
    41    33    25    1
    42    32    27    1
@<TRIPOS>MOLECULE
*****
 37 42 0 0 0
SMALL
GASTEIGER

@<TRIPOS>ATOM
      1 C         139.5784  142.9924  161.4349 C.ar    1  UNL1        0.1317
      2 C         139.0306  142.4212  160.1607 C.ar    1  UNL1        0.0346
      3 C         139.2238  143.1541  158.8662 C.ar    1  UNL1        0.0121
      4 C         139.9649  144.4581  158.8461 C.ar    1  UNL1        0.1076
      5 C         140.5127  145.0292  160.1204 C.ar    1  UNL1        0.1080
      6 N         140.3195  144.2964  161.4148 N.ar    1  UNL1       -0.2289
      7 C         140.7378  141.2180  169.4232 C.ar    1  UNL1        0.0142
      8 C         141.2295  142.1947  168.3964 C.ar    1  UNL1        0.0009
      9 C         140.7063  142.1335  166.9919 C.ar    1  UNL1       -0.0007
     10 C         139.6914  141.0956  166.6142 C.ar    1  UNL1        0.0200
     11 C         139.1996  140.1188  167.6410 C.ar    1  UNL1        0.0749
     12 C         139.7228  140.1800  169.0454 C.ar    1  UNL1        0.0074
     13 C         138.2031  139.2135  166.9797 C.2     1  UNL1        0.3411
     14 O         137.4611  138.0885  167.6382 O.2     1  UNL1       -0.2449
     15 O         138.0789  139.6307  165.5443 O.3     1  UNL1       -0.4484
     16 C         138.9987  140.7939  165.3183 C.3     1  UNL1        0.1583
     17 C         139.9583  141.9443  165.2438 C.3     1  UNL1        0.0659
     18 C         140.1515  142.6771  163.9494 C.3     1  UNL1        0.0961
     19 N         139.3851  142.2595  162.7294 N.pl3   1  UNL1       -0.2930
     20 C         138.4255  141.1091  162.8040 C.3     1  UNL1        0.0961
     21 C         138.2323  140.3763  164.0984 C.3     1  UNL1        0.0659
     22 O         140.4626  141.9654  171.8962 O.co2   1  UNL1       -0.5446
     23 C         141.2610  141.2792  170.8275 C.2     1  UNL1        0.0729
     24 O         142.5825  140.6542  171.1635 O.co2   1  UNL1       -0.5446
     25 C         140.1581  145.1910  157.5517 C.2     1  UNL1        0.3767
     26 N         139.7523  146.6075  157.2714 N.2     1  UNL1       -0.0308
     27 C         140.1345  146.9280  155.8568 C.2     1  UNL1        0.2320
     28 C         139.9808  148.1720  155.0328 C.2     1  UNL1        0.0537
     29 C         140.4692  148.1974  153.6148 C.2     1  UNL1        0.0714
     30 C         141.1113  146.9789  153.0207 C.2     1  UNL1       -0.0133
     31 C         141.2650  145.7349  153.8447 C.3     1  UNL1        0.1037
     32 C         140.7766  145.7095  155.2627 C.2     1  UNL1        0.2178
     33 N         140.7912  144.6359  156.3102 N.2     1  UNL1       -0.0347
     34 C         140.3156  149.4414  152.7908 C.3     1  UNL1        0.4184
     35 F         140.1619  150.6854  151.9668 F       1  UNL1       -0.1659
     36 F         141.5135  149.0504  151.9771 F       1  UNL1       -0.1659
     37 F         139.1176  149.8323  153.6045 F       1  UNL1       -0.1659
@<TRIPOS>UNITY_ATOM_ATTR
22 1
charge -1
@<TRIPOS>BOND
     1    22    23   ar
     2    23    24   ar
     3    23     7    1
     4     7     8   ar
     5     8     9   ar
     6     9    10   ar
     7    10    11   ar
     8    11    12   ar
     9    11    13    1
    10    13    14    2
    11    13    15    1
    12    15    16    1
    13    16    17    1
    14    17    18    1
    15    18    19    1
    16    19     1    1
    17     1     2   ar
    18     2     3   ar
    19     3     4   ar
    20     4    25    1
    21    25    26    2
    22    26    27    1
    23    27    28    2
    24    28    29    1
    25    29    34    1
    26    34    35    1
    27    34    36    1
    28    34    37    1
    29    29    30    2
    30    30    31    1
    31    31    32    1
    32    32    33    2
    33     4     5   ar
    34     5     6   ar
    35    19    20    1
    36    20    21    1
    37    12     7   ar
    38    21    16    1
    39    16    10    1
    40     6     1   ar
    41    33    25    1
    42    32    27    1
@<TRIPOS>MOLECULE
*****
 37 42 0 0 0
SMALL
GASTEIGER

@<TRIPOS>ATOM
      1 C         142.0987  142.4153  161.3621 C.ar    1  UNL1        0.1317
      2 C         140.8031  143.1443  161.1629 C.ar    1  UNL1        0.0346
      3 C         140.5668  143.9233  159.9029 C.ar    1  UNL1        0.0121
      4 C         141.6263  143.9732  158.8422 C.ar    1  UNL1        0.1076
      5 C         142.9220  143.2442  159.0415 C.ar    1  UNL1        0.1080
      6 N         143.1582  142.4652  160.3014 N.ar    1  UNL1       -0.2289
      7 C         141.2073  140.3526  169.3154 C.ar    1  UNL1        0.0142
      8 C         140.6819  141.3654  168.3417 C.ar    1  UNL1        0.0009
      9 C         141.1576  141.3554  166.9191 C.ar    1  UNL1       -0.0007
     10 C         142.1588  140.3326  166.4703 C.ar    1  UNL1        0.0200
     11 C         142.6842  139.3197  167.4441 C.ar    1  UNL1        0.0749
     12 C         142.2085  139.3297  168.8665 C.ar    1  UNL1        0.0074
     13 C         143.6576  138.4396  166.7174 C.2     1  UNL1        0.3411
     14 O         144.4208  137.2921  167.3096 O.2     1  UNL1       -0.2449
     15 O         143.7337  138.9084  165.2946 O.3     1  UNL1       -0.4484
     16 C         142.8074  140.0784  165.1419 C.3     1  UNL1        0.1583
     17 C         141.8463  141.2301  165.1412 C.3     1  UNL1        0.0659
     18 C         141.6101  142.0090  163.8813 C.3     1  UNL1        0.0961
     19 N         142.3350  141.6363  162.6221 N.pl3   1  UNL1       -0.2930
     20 C         143.2960  140.4846  162.6227 C.3     1  UNL1        0.0961
     21 C         143.5322  139.7057  163.8826 C.3     1  UNL1        0.0659
     22 O         139.4758  139.6333  171.1139 O.co2   1  UNL1       -0.5446
     23 C         140.7315  140.3627  170.7378 C.2     1  UNL1        0.0729
     24 O         141.5114  141.1020  171.7843 O.co2   1  UNL1       -0.5446
     25 C         141.3901  144.7522  157.5823 C.2     1  UNL1        0.3767
     26 N         140.7336  146.0975  157.4875 N.2     1  UNL1       -0.0308
     27 C         140.7067  146.4994  156.0426 C.2     1  UNL1        0.2320
     28 C         140.1822  147.7225  155.3506 C.2     1  UNL1        0.0537
     29 C         140.2976  147.8486  153.8603 C.2     1  UNL1        0.0714
     30 C         140.9375  146.7516  153.0622 C.2     1  UNL1       -0.0133
     31 C         141.4620  145.5285  153.7542 C.3     1  UNL1        0.1037
     32 C         141.3466  145.4024  155.2444 C.2     1  UNL1        0.2178
     33 N         141.7689  144.3225  156.1960 N.2     1  UNL1       -0.0347
     34 C         139.7731  149.0717  153.1683 C.3     1  UNL1        0.4184
     35 F         139.2487  150.2949  152.4763 F       1  UNL1       -0.1659
     36 F         140.6346  148.7680  151.9785 F       1  UNL1       -0.1659
     37 F         138.9117  149.3755  154.3581 F       1  UNL1       -0.1659
@<TRIPOS>UNITY_ATOM_ATTR
22 1
charge -1
@<TRIPOS>BOND
     1    22    23   ar
     2    23    24   ar
     3    23     7    1
     4     7     8   ar
     5     8     9   ar
     6     9    10   ar
     7    10    11   ar
     8    11    12   ar
     9    11    13    1
    10    13    14    2
    11    13    15    1
    12    15    16    1
    13    16    17    1
    14    17    18    1
    15    18    19    1
    16    19     1    1
    17     1     2   ar
    18     2     3   ar
    19     3     4   ar
    20     4    25    1
    21    25    26    2
    22    26    27    1
    23    27    28    2
    24    28    29    1
    25    29    34    1
    26    34    35    1
    27    34    36    1
    28    34    37    1
    29    29    30    2
    30    30    31    1
    31    31    32    1
    32    32    33    2
    33     4     5   ar
    34     5     6   ar
    35    19    20    1
    36    20    21    1
    37    12     7   ar
    38    21    16    1
    39    16    10    1
    40     6     1   ar
    41    33    25    1
    42    32    27    1
@<TRIPOS>MOLECULE
*****
 37 42 0 0 0
SMALL
GASTEIGER

@<TRIPOS>ATOM
      1 C         142.5264  138.6676  160.1302 C.ar    1  UNL1        0.1317
      2 C         143.6924  138.2384  160.9706 C.ar    1  UNL1        0.0346
      3 C         143.7591  138.6303  162.4170 C.ar    1  UNL1        0.0121
      4 C         142.6597  139.4515  163.0229 C.ar    1  UNL1        0.1076
      5 C         141.4938  139.8808  162.1825 C.ar    1  UNL1        0.1080
      6 N         141.4271  139.4888  160.7362 N.ar    1  UNL1       -0.2289
      7 C         142.1170  133.5715  153.6367 C.ar    1  UNL1        0.0142
      8 C         142.1702  133.4972  155.1339 C.ar    1  UNL1        0.0009
      9 C         142.2419  134.7567  155.9454 C.ar    1  UNL1       -0.0007
     10 C         142.2605  136.0906  155.2595 C.ar    1  UNL1        0.0200
     11 C         142.2073  136.1650  153.7623 C.ar    1  UNL1        0.0749
     12 C         142.1356  134.9055  152.9509 C.ar    1  UNL1        0.0074
     13 C         142.2404  137.6121  153.3686 C.2     1  UNL1        0.3411
     14 O         142.2060  138.1455  151.9671 O.2     1  UNL1       -0.2449
     15 O         142.3141  138.4320  154.6225 O.3     1  UNL1       -0.4484
     16 C         142.3264  137.4917  155.7912 C.3     1  UNL1        0.1583
     17 C         142.3311  136.4345  156.8553 C.3     1  UNL1        0.0659
     18 C         142.3978  136.8265  158.3016 C.3     1  UNL1        0.0961
     19 N         142.4598  138.2757  158.6838 N.pl3   1  UNL1       -0.2930
     20 C         142.4551  139.3328  157.6197 C.3     1  UNL1        0.0961
     21 C         142.3885  138.9409  156.1734 C.3     1  UNL1        0.0659
     22 O         143.2682  131.4608  152.6520 O.co2   1  UNL1       -0.5446
     23 C         142.0453  132.3120  152.8253 C.2     1  UNL1        0.0729
     24 O         140.7507  131.9037  152.1871 O.co2   1  UNL1       -0.5446
     25 C         142.7264  139.8435  164.4693 C.2     1  UNL1        0.3767
     26 N         143.0010  141.2201  164.9979 N.2     1  UNL1       -0.0308
     27 C         142.9744  141.1551  166.4962 C.2     1  UNL1        0.2320
     28 C         143.1777  142.2030  167.5501 C.2     1  UNL1        0.0537
     29 C         143.0898  141.8340  169.0014 C.2     1  UNL1        0.0714
     30 C         142.7987  140.4172  169.3988 C.2     1  UNL1       -0.0133
     31 C         142.5955  139.3693  168.3449 C.3     1  UNL1        0.1037
     32 C         142.6833  139.7382  166.8937 C.2     1  UNL1        0.2178
     33 N         142.5300  138.9277  165.6409 N.2     1  UNL1       -0.0347
     34 C         143.2931  142.8819  170.0553 C.3     1  UNL1        0.4184
     35 F         143.4963  143.9297  171.1092 F       1  UNL1       -0.1659
     36 F         144.7688  142.6138  170.0373 F       1  UNL1       -0.1659
     37 F         141.8173  143.1500  170.0733 F       1  UNL1       -0.1659
@<TRIPOS>UNITY_ATOM_ATTR
22 1
charge -1
@<TRIPOS>BOND
     1    22    23   ar
     2    23    24   ar
     3    23     7    1
     4     7     8   ar
     5     8     9   ar
     6     9    10   ar
     7    10    11   ar
     8    11    12   ar
     9    11    13    1
    10    13    14    2
    11    13    15    1
    12    15    16    1
    13    16    17    1
    14    17    18    1
    15    18    19    1
    16    19     1    1
    17     1     2   ar
    18     2     3   ar
    19     3     4   ar
    20     4    25    1
    21    25    26    2
    22    26    27    1
    23    27    28    2
    24    28    29    1
    25    29    34    1
    26    34    35    1
    27    34    36    1
    28    34    37    1
    29    29    30    2
    30    30    31    1
    31    31    32    1
    32    32    33    2
    33     4     5   ar
    34     5     6   ar
    35    19    20    1
    36    20    21    1
    37    12     7   ar
    38    21    16    1
    39    16    10    1
    40     6     1   ar
    41    33    25    1
    42    32    27    1
@<TRIPOS>MOLECULE
*****
 37 42 0 0 0
SMALL
GASTEIGER

@<TRIPOS>ATOM
      1 C         143.8463  142.5231  160.1505 C.ar    1  UNL1        0.1317
      2 C         144.2373  141.3697  161.0261 C.ar    1  UNL1        0.0346
      3 C         143.8875  141.3830  162.4847 C.ar    1  UNL1        0.0121
      4 C         143.1468  142.5498  163.0677 C.ar    1  UNL1        0.1076
      5 C         142.7558  143.7033  162.1920 C.ar    1  UNL1        0.1080
      6 N         143.1056  143.6899  160.7335 N.ar    1  UNL1       -0.2289
      7 C         148.7154  141.9630  153.4959 C.ar    1  UNL1        0.0142
      8 C         148.8280  141.9049  154.9906 C.ar    1  UNL1        0.0009
      9 C         147.6038  142.0682  155.8420 C.ar    1  UNL1       -0.0007
     10 C         146.2670  142.2897  155.1986 C.ar    1  UNL1        0.0200
     11 C         146.1544  142.3479  153.7039 C.ar    1  UNL1        0.0749
     12 C         147.3785  142.1845  152.8527 C.ar    1  UNL1        0.0074
     13 C         144.7133  142.5772  153.3563 C.2     1  UNL1        0.3411
     14 O         144.1493  142.7011  151.9720 O.2     1  UNL1       -0.2449
     15 O         143.9354  142.6607  154.6361 O.3     1  UNL1       -0.4484
     16 C         144.8956  142.4830  155.7747 C.3     1  UNL1        0.1583
     17 C         145.9687  142.2912  156.8051 C.3     1  UNL1        0.0659
     18 C         145.6189  142.3045  158.2636 C.3     1  UNL1        0.0961
     19 N         144.1961  142.5097  158.6918 N.pl3   1  UNL1       -0.2930
     20 C         143.1230  142.7016  157.6615 C.3     1  UNL1        0.0961
     21 C         143.4728  142.6883  156.2030 C.3     1  UNL1        0.0659
     22 O         150.3017  140.4485  152.1032 O.co2   1  UNL1       -0.5446
     23 C         149.9395  141.7997  152.6447 C.2     1  UNL1        0.0729
     24 O         150.8014  142.9875  152.3347 O.co2   1  UNL1       -0.5446
     25 C         142.7971  142.5632  164.5263 C.2     1  UNL1        0.3767
     26 N         141.4584  142.9077  165.1088 N.2     1  UNL1       -0.0308
     27 C         141.5585  142.7919  166.6009 C.2     1  UNL1        0.2320
     28 C         140.5554  143.0115  167.6943 C.2     1  UNL1        0.0537
     29 C         140.9528  142.8150  169.1273 C.2     1  UNL1        0.0714
     30 C         142.3533  142.3989  169.4670 C.2     1  UNL1       -0.0133
     31 C         143.3564  142.1793  168.3736 C.3     1  UNL1        0.1037
     32 C         142.9591  142.3757  166.9407 C.2     1  UNL1        0.2178
     33 N         143.7245  142.2344  165.6584 N.2     1  UNL1       -0.0347
     34 C         139.9496  143.0347  170.2207 C.3     1  UNL1        0.4184
     35 F         138.9464  143.2544  171.3140 F       1  UNL1       -0.1659
     36 F         139.7199  141.5549  170.3072 F       1  UNL1       -0.1659
     37 F         140.1793  144.5145  170.1342 F       1  UNL1       -0.1659
@<TRIPOS>UNITY_ATOM_ATTR
22 1
charge -1
@<TRIPOS>BOND
     1    22    23   ar
     2    23    24   ar
     3    23     7    1
     4     7     8   ar
     5     8     9   ar
     6     9    10   ar
     7    10    11   ar
     8    11    12   ar
     9    11    13    1
    10    13    14    2
    11    13    15    1
    12    15    16    1
    13    16    17    1
    14    17    18    1
    15    18    19    1
    16    19     1    1
    17     1     2   ar
    18     2     3   ar
    19     3     4   ar
    20     4    25    1
    21    25    26    2
    22    26    27    1
    23    27    28    2
    24    28    29    1
    25    29    34    1
    26    34    35    1
    27    34    36    1
    28    34    37    1
    29    29    30    2
    30    30    31    1
    31    31    32    1
    32    32    33    2
    33     4     5   ar
    34     5     6   ar
    35    19    20    1
    36    20    21    1
    37    12     7   ar
    38    21    16    1
    39    16    10    1
    40     6     1   ar
    41    33    25    1
    42    32    27    1
@<TRIPOS>MOLECULE
*****
 37 42 0 0 0
SMALL
GASTEIGER

@<TRIPOS>ATOM
      1 C         143.2527  139.0901  160.5383 C.ar    1  UNL1        0.1317
      2 C         143.1229  139.7373  159.1914 C.ar    1  UNL1        0.0346
      3 C         142.9097  138.8922  157.9706 C.ar    1  UNL1        0.0121
      4 C         142.8263  137.3998  158.0968 C.ar    1  UNL1        0.1076
      5 C         142.9561  136.7526  159.4438 C.ar    1  UNL1        0.1080
      6 N         143.1693  137.5978  160.6645 N.ar    1  UNL1       -0.2289
      7 C         142.3852  141.4418  168.4137 C.ar    1  UNL1        0.0142
      8 C         141.9020  140.3594  167.4945 C.ar    1  UNL1        0.0009
      9 C         142.3509  140.3347  166.0634 C.ar    1  UNL1       -0.0007
     10 C         143.2831  141.3926  165.5516 C.ar    1  UNL1        0.0200
     11 C         143.7663  142.4750  166.4708 C.ar    1  UNL1        0.0749
     12 C         143.3174  142.4996  167.9018 C.ar    1  UNL1        0.0074
     13 C         144.6740  143.3769  165.6880 C.2     1  UNL1        0.3411
     14 O         145.3800  144.5906  166.2155 O.2     1  UNL1       -0.2449
     15 O         144.7518  142.8518  164.2850 O.3     1  UNL1       -0.4484
     16 C         143.8921  141.6254  164.2007 C.3     1  UNL1        0.1583
     17 C         142.9995  140.4219  164.2682 C.3     1  UNL1        0.0659
     18 C         142.7863  139.5768  163.0475 C.3     1  UNL1        0.0961
     19 N         143.4659  139.9353  161.7591 N.pl3   1  UNL1       -0.2930
     20 C         144.3585  141.1388  161.6916 C.3     1  UNL1        0.0961
     21 C         144.5716  141.9839  162.9124 C.3     1  UNL1        0.0659
     22 O         142.3787  142.5770  170.7506 O.co2   1  UNL1       -0.5446
     23 C         141.9362  141.4663  169.8446 C.2     1  UNL1        0.0729
     24 O         141.0448  140.3803  170.3698 O.co2   1  UNL1       -0.5446
     25 C         142.6132  136.5547  156.8760 C.2     1  UNL1        0.3767
     26 N         142.7336  135.0612  156.8056 N.2     1  UNL1       -0.0308
     27 C         142.4370  134.6381  155.3975 C.2     1  UNL1        0.2320
     28 C         142.4043  133.2901  154.7402 C.2     1  UNL1        0.0537
     29 C         142.0678  133.1742  153.2830 C.2     1  UNL1        0.0714
     30 C         141.7640  134.4062  152.4831 C.2     1  UNL1       -0.0133
     31 C         141.7967  135.7541  153.1403 C.3     1  UNL1        0.1037
     32 C         142.1332  135.8701  154.5975 C.2     1  UNL1        0.2178
     33 N         142.2421  137.0546  155.5113 N.2     1  UNL1       -0.0347
     34 C         142.0350  131.8262  152.6258 C.3     1  UNL1        0.4184
     35 F         142.0023  130.4783  151.9685 F       1  UNL1       -0.1659
     36 F         143.4757  131.6154  152.9865 F       1  UNL1       -0.1659
     37 F         140.5944  132.0371  152.2650 F       1  UNL1       -0.1659
@<TRIPOS>UNITY_ATOM_ATTR
22 1
charge -1
@<TRIPOS>BOND
     1    22    23   ar
     2    23    24   ar
     3    23     7    1
     4     7     8   ar
     5     8     9   ar
     6     9    10   ar
     7    10    11   ar
     8    11    12   ar
     9    11    13    1
    10    13    14    2
    11    13    15    1
    12    15    16    1
    13    16    17    1
    14    17    18    1
    15    18    19    1
    16    19     1    1
    17     1     2   ar
    18     2     3   ar
    19     3     4   ar
    20     4    25    1
    21    25    26    2
    22    26    27    1
    23    27    28    2
    24    28    29    1
    25    29    34    1
    26    34    35    1
    27    34    36    1
    28    34    37    1
    29    29    30    2
    30    30    31    1
    31    31    32    1
    32    32    33    2
    33     4     5   ar
    34     5     6   ar
    35    19    20    1
    36    20    21    1
    37    12     7   ar
    38    21    16    1
    39    16    10    1
    40     6     1   ar
    41    33    25    1
    42    32    27    1
@<TRIPOS>MOLECULE
*****
 37 42 0 0 0
SMALL
GASTEIGER

@<TRIPOS>ATOM
      1 C         142.8141  141.4046  163.7720 C.ar    1  UNL1        0.1317
      2 C         141.8694  141.6926  162.6431 C.ar    1  UNL1        0.0346
      3 C         142.3684  141.6904  161.2284 C.ar    1  UNL1        0.0121
      4 C         143.8121  141.4001  160.9429 C.ar    1  UNL1        0.1076
      5 C         144.7568  141.1121  162.0719 C.ar    1  UNL1        0.1080
      6 N         144.2578  141.1144  163.4864 N.ar    1  UNL1       -0.2289
      7 C         137.8273  139.5178  170.0868 C.ar    1  UNL1        0.0142
      8 C         137.9486  139.2426  168.6173 C.ar    1  UNL1        0.0009
      9 C         139.0844  139.8324  167.8349 C.ar    1  UNL1       -0.0007
     10 C         140.0989  140.6975  168.5221 C.ar    1  UNL1        0.0200
     11 C         139.9777  140.9728  169.9917 C.ar    1  UNL1        0.0749
     12 C         138.8419  140.3830  170.7740 C.ar    1  UNL1        0.0074
     13 C         141.1210  141.8568  170.3936 C.2     1  UNL1        0.3411
     14 O         141.3893  142.3781  171.7741 O.2     1  UNL1       -0.2449
     15 O         141.9488  142.1278  169.1724 O.3     1  UNL1       -0.4484
     16 C         141.3172  141.4113  168.0157 C.3     1  UNL1        0.1583
     17 C         140.5766  140.6447  166.9604 C.3     1  UNL1        0.0659
     18 C         141.0755  140.6425  165.5459 C.3     1  UNL1        0.0961
     19 N         142.3151  141.4069  165.1867 N.pl3   1  UNL1       -0.2930
     20 C         143.0558  142.1735  166.2420 C.3     1  UNL1        0.0961
     21 C         142.5568  142.1757  167.6565 C.3     1  UNL1        0.0659
     22 O         136.2981  137.4962  170.6564 O.co2   1  UNL1       -0.5446
     23 C         136.6915  138.9280  170.8690 C.2     1  UNL1        0.0729
     24 O         135.9491  139.7699  171.8640 O.co2   1  UNL1       -0.5446
     25 C         144.3111  141.3979  159.5283 C.2     1  UNL1        0.3767
     26 N         145.2362  142.4087  158.9182 N.2     1  UNL1       -0.0308
     27 C         145.4694  142.0200  157.4883 C.2     1  UNL1        0.2320
     28 C         146.2921  142.6436  156.4000 C.2     1  UNL1        0.0537
     29 C         146.3337  142.0160  155.0382 C.2     1  UNL1        0.0714
     30 C         145.5528  140.7649  154.7647 C.2     1  UNL1       -0.0133
     31 C         144.7301  140.1413  155.8530 C.3     1  UNL1        0.1037
     32 C         144.6884  140.7688  157.2148 C.2     1  UNL1        0.2178
     33 N         143.9726  140.3843  158.4756 N.2     1  UNL1       -0.0347
     34 C         147.1563  142.6396  153.9499 C.3     1  UNL1        0.4184
     35 F         147.9790  143.2633  152.8616 F       1  UNL1       -0.1659
     36 F         147.0210  141.3899  153.1314 F       1  UNL1       -0.1659
     37 F         147.2917  143.8894  154.7684 F       1  UNL1       -0.1659
@<TRIPOS>UNITY_ATOM_ATTR
22 1
charge -1
@<TRIPOS>BOND
     1    22    23   ar
     2    23    24   ar
     3    23     7    1
     4     7     8   ar
     5     8     9   ar
     6     9    10   ar
     7    10    11   ar
     8    11    12   ar
     9    11    13    1
    10    13    14    2
    11    13    15    1
    12    15    16    1
    13    16    17    1
    14    17    18    1
    15    18    19    1
    16    19     1    1
    17     1     2   ar
    18     2     3   ar
    19     3     4   ar
    20     4    25    1
    21    25    26    2
    22    26    27    1
    23    27    28    2
    24    28    29    1
    25    29    34    1
    26    34    35    1
    27    34    36    1
    28    34    37    1
    29    29    30    2
    30    30    31    1
    31    31    32    1
    32    32    33    2
    33     4     5   ar
    34     5     6   ar
    35    19    20    1
    36    20    21    1
    37    12     7   ar
    38    21    16    1
    39    16    10    1
    40     6     1   ar
    41    33    25    1
    42    32    27    1
@<TRIPOS>MOLECULE
*****
 37 42 0 0 0
SMALL
GASTEIGER

@<TRIPOS>ATOM
      1 C         142.6845  137.6076  160.2423 C.ar    1  UNL1        0.1317
      2 C         143.9878  138.0964  160.8010 C.ar    1  UNL1        0.0346
      3 C         144.0291  138.7392  162.1558 C.ar    1  UNL1        0.0121
      4 C         142.7670  138.8930  162.9517 C.ar    1  UNL1        0.1076
      5 C         141.4636  138.4041  162.3928 C.ar    1  UNL1        0.1080
      6 N         141.4224  137.7614  161.0382 N.ar    1  UNL1       -0.2289
      7 C         143.6108  131.6099  154.6321 C.ar    1  UNL1        0.0142
      8 C         143.8135  131.8274  156.1024 C.ar    1  UNL1        0.0009
      9 C         143.4903  133.1577  156.7154 C.ar    1  UNL1       -0.0007
     10 C         142.9643  134.2706  155.8581 C.ar    1  UNL1        0.0200
     11 C         142.7616  134.0530  154.3878 C.ar    1  UNL1        0.0749
     12 C         143.0848  132.7228  153.7749 C.ar    1  UNL1        0.0074
     13 C         142.2326  135.3274  153.7993 C.2     1  UNL1        0.3411
     14 O         141.8883  135.5564  152.3575 O.2     1  UNL1       -0.2449
     15 O         142.1084  136.3325  154.9058 O.3     1  UNL1       -0.4484
     16 C         142.5606  135.6793  156.1782 C.3     1  UNL1        0.1583
     17 C         143.0393  134.8971  157.3652 C.3     1  UNL1        0.0659
     18 C         143.0806  135.5399  158.7199 C.3     1  UNL1        0.0961
     19 N         142.6432  136.9648  158.8875 N.pl3   1  UNL1       -0.2930
     20 C         142.1645  137.7471  157.7006 C.3     1  UNL1        0.0961
     21 C         142.1232  137.1043  156.3459 C.3     1  UNL1        0.0659
     22 O         144.1668  130.1714  152.5413 O.co2   1  UNL1       -0.5446
     23 C         143.9340  130.2796  154.0192 C.2     1  UNL1        0.0729
     24 O         144.0245  129.0574  154.8841 O.co2   1  UNL1       -0.5446
     25 C         142.8083  139.5357  164.3064 C.2     1  UNL1        0.3767
     26 N         142.5101  138.8604  165.6121 N.2     1  UNL1       -0.0308
     27 C         142.6725  139.8739  166.7059 C.2     1  UNL1        0.2320
     28 C         142.5089  139.7796  168.1940 C.2     1  UNL1        0.0537
     29 C         142.7439  140.9871  169.0523 C.2     1  UNL1        0.0714
     30 C         143.1425  142.2889  168.4226 C.2     1  UNL1       -0.0133
     31 C         143.3060  142.3831  166.9345 C.3     1  UNL1        0.1037
     32 C         143.0710  141.1757  166.0762 C.2     1  UNL1        0.2178
     33 N         143.1550  140.9667  164.5932 N.2     1  UNL1       -0.0347
     34 C         142.5804  140.8928  170.5404 C.3     1  UNL1        0.4184
     35 F         142.4168  140.7985  172.0285 F       1  UNL1       -0.1659
     36 F         142.1463  142.3280  170.5836 F       1  UNL1       -0.1659
     37 F         143.0145  139.4577  170.4972 F       1  UNL1       -0.1659
@<TRIPOS>UNITY_ATOM_ATTR
22 1
charge -1
@<TRIPOS>BOND
     1    22    23   ar
     2    23    24   ar
     3    23     7    1
     4     7     8   ar
     5     8     9   ar
     6     9    10   ar
     7    10    11   ar
     8    11    12   ar
     9    11    13    1
    10    13    14    2
    11    13    15    1
    12    15    16    1
    13    16    17    1
    14    17    18    1
    15    18    19    1
    16    19     1    1
    17     1     2   ar
    18     2     3   ar
    19     3     4   ar
    20     4    25    1
    21    25    26    2
    22    26    27    1
    23    27    28    2
    24    28    29    1
    25    29    34    1
    26    34    35    1
    27    34    36    1
    28    34    37    1
    29    29    30    2
    30    30    31    1
    31    31    32    1
    32    32    33    2
    33     4     5   ar
    34     5     6   ar
    35    19    20    1
    36    20    21    1
    37    12     7   ar
    38    21    16    1
    39    16    10    1
    40     6     1   ar
    41    33    25    1
    42    32    27    1
@<TRIPOS>MOLECULE
*****
 37 42 0 0 0
SMALL
GASTEIGER

@<TRIPOS>ATOM
      1 C         140.8432  142.6102  163.9188 C.ar    1  UNL1        0.1317
      2 C         139.9864  143.8128  163.6552 C.ar    1  UNL1        0.0346
      3 C         139.8283  144.3290  162.2557 C.ar    1  UNL1        0.0121
      4 C         140.5272  143.6425  161.1197 C.ar    1  UNL1        0.1076
      5 C         141.3840  142.4398  161.3834 C.ar    1  UNL1        0.1080
      6 N         141.5420  141.9236  162.7828 N.ar    1  UNL1       -0.2289
      7 C         143.5487  137.6304  169.9343 C.ar    1  UNL1        0.0142
      8 C         143.6723  137.7817  168.4471 C.ar    1  UNL1        0.0009
      9 C         142.9617  138.9009  167.7453 C.ar    1  UNL1       -0.0007
     10 C         142.1274  139.8688  168.5308 C.ar    1  UNL1        0.0200
     11 C         142.0038  139.7176  170.0181 C.ar    1  UNL1        0.0749
     12 C         142.7144  138.5985  170.7198 C.ar    1  UNL1        0.0074
     13 C         141.1172  140.8169  170.5237 C.2     1  UNL1        0.3411
     14 O         140.7240  141.0455  171.9530 O.2     1  UNL1       -0.2449
     15 O         140.6930  141.6476  169.3489 O.3     1  UNL1       -0.4484
     16 C         141.3173  141.0616  168.1172 C.3     1  UNL1        0.1583
     17 C         142.0060  140.3677  166.9797 C.3     1  UNL1        0.0659
     18 C         141.8480  140.8838  165.5802 C.3     1  UNL1        0.0961
     19 N         141.0012  142.0940  165.3183 N.pl3   1  UNL1       -0.2930
     20 C         140.3125  142.7879  166.4559 C.3     1  UNL1        0.0961
     21 C         140.4706  142.2717  167.8553 C.3     1  UNL1        0.0659
     22 O         143.5972  135.8035  171.7809 O.co2   1  UNL1       -0.5446
     23 C         144.2593  136.5113  170.6360 C.2     1  UNL1        0.0729
     24 O         145.6320  136.0999  170.1929 O.co2   1  UNL1       -0.5446
     25 C         140.3692  144.1586  159.7202 C.2     1  UNL1        0.3767
     26 N         140.1709  145.5923  159.3264 N.2     1  UNL1       -0.0308
     27 C         140.0609  145.6514  157.8316 C.2     1  UNL1        0.2320
     28 C         139.8589  146.7970  156.8846 C.2     1  UNL1        0.0537
     29 C         139.7872  146.5454  155.4076 C.2     1  UNL1        0.0714
     30 C         139.9175  145.1482  154.8776 C.2     1  UNL1       -0.0133
     31 C         140.1195  144.0026  155.8246 C.3     1  UNL1        0.1037
     32 C         140.1912  144.2542  157.3016 C.2     1  UNL1        0.2178
     33 N         140.3817  143.3316  158.4688 N.2     1  UNL1       -0.0347
     34 C         139.5852  147.6910  154.4606 C.3     1  UNL1        0.4184
     35 F         139.3833  148.8365  153.5135 F       1  UNL1       -0.1659
     36 F         140.6575  147.1415  153.5671 F       1  UNL1       -0.1659
     37 F         138.5129  148.2405  155.3540 F       1  UNL1       -0.1659
@<TRIPOS>UNITY_ATOM_ATTR
22 1
charge -1
@<TRIPOS>BOND
     1    22    23   ar
     2    23    24   ar
     3    23     7    1
     4     7     8   ar
     5     8     9   ar
     6     9    10   ar
     7    10    11   ar
     8    11    12   ar
     9    11    13    1
    10    13    14    2
    11    13    15    1
    12    15    16    1
    13    16    17    1
    14    17    18    1
    15    18    19    1
    16    19     1    1
    17     1     2   ar
    18     2     3   ar
    19     3     4   ar
    20     4    25    1
    21    25    26    2
    22    26    27    1
    23    27    28    2
    24    28    29    1
    25    29    34    1
    26    34    35    1
    27    34    36    1
    28    34    37    1
    29    29    30    2
    30    30    31    1
    31    31    32    1
    32    32    33    2
    33     4     5   ar
    34     5     6   ar
    35    19    20    1
    36    20    21    1
    37    12     7   ar
    38    21    16    1
    39    16    10    1
    40     6     1   ar
    41    33    25    1
    42    32    27    1
