@<TRIPOS>MOLECULE
*****
 47 53 0 0 0
SMALL
GASTEIGER

@<TRIPOS>ATOM
      1 C         137.9060  144.0181  164.5081 C.3     1  UNL1        0.0320
      2 C         137.8992  139.9497  162.5852 C.3     1  UNL1        0.0700
      3 C         137.7286  141.1782  161.7416 C.3     1  UNL1        0.0193
      4 C         137.7309  142.5344  162.3825 C.3     1  UNL1        0.0286
      5 C         137.9037  142.6620  163.8671 C.3     1  UNL1        0.0932
      6 C         138.0743  141.4335  164.7107 C.3     1  UNL1        0.0286
      7 C         138.0721  140.0773  164.0697 C.3     1  UNL1        0.0193
      8 O         137.9092  141.8976  163.5612 O.3     1  UNL1       -0.3572
      9 C         137.9071  140.6713  162.9816 C.3     1  UNL1        0.1562
     10 N         137.8970  138.5936  161.9442 N.3     1  UNL1       -0.2926
     11 H         137.6585  137.9230  162.6748 H       1  UNL1        0.1236
     12 C         139.1356  138.0796  161.2721 C.3     1  UNL1        0.1152
     13 O         143.9384  138.0429  167.4107 O.2     1  UNL1       -0.2707
     14 C         143.6852  138.3339  165.9612 C.2     1  UNL1        0.2718
     15 C         144.7796  138.9037  165.1083 C.3     1  UNL1        0.2898
     16 O         144.5264  139.1947  163.6587 O.3     1  UNL1       -0.4628
     17 C         143.1787  138.9159  163.0621 C.ar    1  UNL1        0.1708
     18 C         142.9255  139.2069  161.6125 C.ar    1  UNL1        0.0411
     19 C         141.5778  138.9282  161.0159 C.ar    1  UNL1        0.0193
     20 C         140.4833  138.3583  161.8688 C.ar    1  UNL1        0.0765
     21 N         140.7365  138.0673  163.3183 N.ar    1  UNL1       -0.2304
     22 C         142.0843  138.3461  163.9150 C.ar    1  UNL1        0.1682
     23 N         142.3375  138.0551  165.3645 N.am    1  UNL1       -0.2639
     24 H         141.6192  137.6811  165.9243 H       1  UNL1        0.1565
     25 C         139.2059  144.7036  164.8085 C.3     1  UNL1        0.0327
     26 C         140.3447  144.6111  163.8366 C.ar    1  UNL1        0.0261
     27 C         140.2377  145.2663  162.4914 C.ar    1  UNL1        0.1566
     28 F         138.9920  146.0139  162.1183 F       1  UNL1       -0.2028
     29 C         141.3765  145.1739  161.5195 C.ar    1  UNL1        0.1281
     30 N         142.6222  144.4263  161.8927 N.ar    1  UNL1       -0.2400
     31 C         142.7292  143.7711  163.2378 C.ar    1  UNL1        0.0990
     32 C         143.9749  143.0235  163.6109 C.ar    1  UNL1        0.0254
     33 C         144.0819  142.3684  164.9561 C.ar    1  UNL1        0.0593
     34 C         142.9431  142.4608  165.9280 C.ar    1  UNL1        0.2248
     35 N         141.6974  143.2084  165.5548 N.ar    1  UNL1       -0.2104
     36 C         141.5904  143.8635  164.2098 C.ar    1  UNL1        0.1002
     37 O         143.0501  141.8056  167.2731 O.3     1  UNL1       -0.4638
     38 C         141.8101  141.5061  168.0622 C.3     1  UNL1        0.1724
     39 C         140.8229  140.4977  167.5539 C.3     1  UNL1        0.0729
     40 C         139.5830  140.1982  168.3430 C.3     1  UNL1        0.1165
     41 O         138.5958  139.1897  167.8346 O.3     1  UNL1       -0.3843
     42 C         139.3302  140.9071  169.6405 C.3     1  UNL1        0.0587
     43 C         140.3174  141.9156  170.1489 C.3     1  UNL1        0.1165
     44 O         140.0646  142.6245  171.4463 O.3     1  UNL1       -0.3843
     45 C         141.5574  142.2151  169.3597 C.3     1  UNL1        0.0729
     46 H         137.8575  139.1165  168.4596 H       1  UNL1        0.2103
     47 H         139.2261  142.3169  171.8248 H       1  UNL1        0.2103
@<TRIPOS>BOND
     1    13    14    2
     2    14    15    1
     3    15    16    1
     4    16    17    1
     5    17    18   ar
     6    18    19   ar
     7    19    20   ar
     8    20    12    1
     9    12    10    1
    10    10     2    1
    11     2     3    1
    12     3     4    1
    13     4     5    1
    14     5     1    1
    15     1    25    1
    16    25    26    1
    17    26    27   ar
    18    27    28    1
    19    27    29   ar
    20    29    30   ar
    21    30    31   ar
    22    31    32   ar
    23    32    33   ar
    24    33    34   ar
    25    34    37    1
    26    37    38    1
    27    38    39    1
    28    39    40    1
    29    40    41    1
    30    40    42    1
    31    42    43    1
    32    43    44    1
    33    43    45    1
    34    34    35   ar
    35    35    36   ar
    36     5     6    1
    37     6     7    1
    38     5     8    1
    39     8     9    1
    40    20    21   ar
    41    21    22   ar
    42    22    23    1
    43    23    14   am
    44    22    17   ar
    45     7     2    1
    46     9     2    1
    47    36    26   ar
    48    36    31   ar
    49    45    38    1
    50    10    11    1
    51    41    46    1
    52    44    47    1
    53    23    24    1
@<TRIPOS>MOLECULE
*****
 47 53 0 0 0
SMALL
GASTEIGER

@<TRIPOS>ATOM
      1 C         140.5641  137.4530  164.2730 C.3     1  UNL1        0.0320
      2 C         144.2591  139.7370  163.0981 C.3     1  UNL1        0.0700
      3 C         143.2547  139.3472  162.0544 C.3     1  UNL1        0.0193
      4 C         142.0231  138.5859  162.4460 C.3     1  UNL1        0.0286
      5 C         141.7957  138.2143  163.8814 C.3     1  UNL1        0.0932
      6 C         142.8001  138.6041  164.9251 C.3     1  UNL1        0.0286
      7 C         144.0318  139.3654  164.5335 C.3     1  UNL1        0.0193
      8 O         142.4856  138.6318  163.7150 O.3     1  UNL1       -0.3572
      9 C         143.5994  139.3202  163.3609 C.3     1  UNL1        0.1562
     10 N         145.4908  140.4983  162.7065 N.3     1  UNL1       -0.2926
     11 H         146.2836  140.0100  163.1230 H       1  UNL1        0.1236
     12 C         145.6286  141.9447  163.0792 C.3     1  UNL1        0.1152
     13 O         140.1940  145.6467  158.8948 O.2     1  UNL1       -0.2707
     14 C         140.8142  145.3217  160.2213 C.2     1  UNL1        0.2718
     15 C         140.2433  145.9056  161.4794 C.3     1  UNL1        0.2898
     16 O         140.8635  145.5805  162.8059 O.3     1  UNL1       -0.4628
     17 C         142.0548  144.6716  162.8743 C.ar    1  UNL1        0.1708
     18 C         142.6751  144.3465  164.2008 C.ar    1  UNL1        0.0411
     19 C         143.8663  143.4376  164.2691 C.ar    1  UNL1        0.0193
     20 C         144.4374  142.8537  163.0109 C.ar    1  UNL1        0.0765
     21 N         143.8171  143.1787  161.6844 N.ar    1  UNL1       -0.2304
     22 C         142.6258  144.0877  161.6161 C.ar    1  UNL1        0.1682
     23 N         142.0055  144.4128  160.2896 N.am    1  UNL1       -0.2639
     24 H         142.3803  144.0295  159.4638 H       1  UNL1        0.1565
     25 C         139.3453  138.1895  164.7442 C.3     1  UNL1        0.0327
     26 C         138.7661  139.2929  163.9092 C.ar    1  UNL1        0.0261
     27 C         138.0382  138.9687  162.6383 C.ar    1  UNL1        0.1566
     28 F         137.8895  137.5411  162.2024 F       1  UNL1       -0.2028
     29 C         137.4591  140.0720  161.8033 C.ar    1  UNL1        0.1281
     30 N         137.6079  141.4996  162.2392 N.ar    1  UNL1       -0.2400
     31 C         138.3357  141.8238  163.5101 C.ar    1  UNL1        0.0990
     32 C         138.4844  143.2513  163.9459 C.ar    1  UNL1        0.0254
     33 C         139.2123  143.5755  165.2168 C.ar    1  UNL1        0.0593
     34 C         139.7914  142.4722  166.0518 C.ar    1  UNL1        0.2248
     35 N         139.6427  141.0446  165.6159 N.ar    1  UNL1       -0.2104
     36 C         138.9149  140.7204  164.3451 C.ar    1  UNL1        0.1002
     37 O         140.5193  142.7964  167.3227 O.3     1  UNL1       -0.4638
     38 C         140.9779  141.6912  168.2272 C.3     1  UNL1        0.1724
     39 C         141.9470  140.6631  167.7235 C.3     1  UNL1        0.0729
     40 C         142.4056  139.5579  168.6280 C.3     1  UNL1        0.1165
     41 O         143.3747  138.5298  168.1243 O.3     1  UNL1       -0.3843
     42 C         141.8950  139.4808  170.0363 C.3     1  UNL1        0.0587
     43 C         140.9259  140.5089  170.5401 C.3     1  UNL1        0.1165
     44 O         140.4153  140.4318  171.9484 O.3     1  UNL1       -0.3843
     45 C         140.4673  141.6141  169.6356 C.3     1  UNL1        0.0729
     46 H         143.5653  137.8920  168.8298 H       1  UNL1        0.2103
     47 H         140.8078  139.6642  172.3931 H       1  UNL1        0.2103
@<TRIPOS>BOND
     1    13    14    2
     2    14    15    1
     3    15    16    1
     4    16    17    1
     5    17    18   ar
     6    18    19   ar
     7    19    20   ar
     8    20    12    1
     9    12    10    1
    10    10     2    1
    11     2     3    1
    12     3     4    1
    13     4     5    1
    14     5     1    1
    15     1    25    1
    16    25    26    1
    17    26    27   ar
    18    27    28    1
    19    27    29   ar
    20    29    30   ar
    21    30    31   ar
    22    31    32   ar
    23    32    33   ar
    24    33    34   ar
    25    34    37    1
    26    37    38    1
    27    38    39    1
    28    39    40    1
    29    40    41    1
    30    40    42    1
    31    42    43    1
    32    43    44    1
    33    43    45    1
    34    34    35   ar
    35    35    36   ar
    36     5     6    1
    37     6     7    1
    38     5     8    1
    39     8     9    1
    40    20    21   ar
    41    21    22   ar
    42    22    23    1
    43    23    14   am
    44    22    17   ar
    45     7     2    1
    46     9     2    1
    47    36    26   ar
    48    36    31   ar
    49    45    38    1
    50    10    11    1
    51    41    46    1
    52    44    47    1
    53    23    24    1
@<TRIPOS>MOLECULE
*****
 47 53 0 0 0
SMALL
GASTEIGER

@<TRIPOS>ATOM
      1 C         144.3035  141.0093  164.3123 C.3     1  UNL1        0.0320
      2 C         141.9721  144.7419  163.3731 C.3     1  UNL1        0.0700
      3 C         142.9917  144.2295  162.3994 C.3     1  UNL1        0.0193
      4 C         143.7687  142.9853  162.7125 C.3     1  UNL1        0.0286
      5 C         143.5264  142.2535  163.9992 C.3     1  UNL1        0.0932
      6 C         142.5069  142.7659  164.9729 C.3     1  UNL1        0.0286
      7 C         141.7297  144.0102  164.6598 C.3     1  UNL1        0.0193
      8 O         143.0761  142.9309  163.8716 O.3     1  UNL1       -0.3572
      9 C         142.3734  144.0559  163.5886 C.3     1  UNL1        0.1562
     10 N         141.1950  145.9861  163.0600 N.3     1  UNL1       -0.2926
     11 H         140.9733  146.4272  163.9526 H       1  UNL1        0.1236
     12 C         139.9102  145.8945  162.2913 C.3     1  UNL1        0.1152
     13 O         138.5147  139.5017  158.0563 O.2     1  UNL1       -0.2707
     14 C         138.2975  140.3070  159.3030 C.2     1  UNL1        0.2718
     15 C         137.3980  139.7868  160.3848 C.3     1  UNL1        0.2898
     16 O         137.1808  140.5922  161.6315 O.3     1  UNL1       -0.4628
     17 C         137.8631  141.9177  161.7964 C.ar    1  UNL1        0.1708
     18 C         137.6459  142.7231  163.0431 C.ar    1  UNL1        0.0411
     19 C         138.3283  144.0486  163.2081 C.ar    1  UNL1        0.0193
     20 C         139.2279  144.5689  162.1263 C.ar    1  UNL1        0.0765
     21 N         139.4451  143.7636  160.8796 N.ar    1  UNL1       -0.2304
     22 C         138.7627  142.4379  160.7147 C.ar    1  UNL1        0.1682
     23 N         138.9799  141.6326  159.4680 N.am    1  UNL1       -0.2639
     24 H         139.5703  141.9740  158.7580 H       1  UNL1        0.1565
     25 C         143.6252  139.8490  164.9785 C.3     1  UNL1        0.0327
     26 C         142.5941  139.0543  164.2333 C.ar    1  UNL1        0.0261
     27 C         142.9406  138.4230  162.9175 C.ar    1  UNL1        0.1566
     28 F         144.3181  138.5864  162.3468 F       1  UNL1       -0.2028
     29 C         141.9095  137.6283  162.1723 C.ar    1  UNL1        0.1281
     30 N         140.5319  137.4649  162.7430 N.ar    1  UNL1       -0.2400
     31 C         140.1855  138.0962  164.0588 C.ar    1  UNL1        0.0990
     32 C         138.8079  137.9328  164.6294 C.ar    1  UNL1        0.0254
     33 C         138.4615  138.5641  165.9453 C.ar    1  UNL1        0.0593
     34 C         139.4925  139.3588  166.6904 C.ar    1  UNL1        0.2248
     35 N         140.8701  139.5222  166.1198 N.ar    1  UNL1       -0.2104
     36 C         141.2166  138.8909  164.8040 C.ar    1  UNL1        0.1002
     37 O         139.1460  139.9901  168.0062 O.3     1  UNL1       -0.4638
     38 C         140.2293  140.5611  168.8725 C.3     1  UNL1        0.1724
     39 C         140.2733  142.0356  169.1442 C.3     1  UNL1        0.0729
     40 C         141.3566  142.6066  170.0105 C.3     1  UNL1        0.1165
     41 O         141.4006  144.0811  170.2822 O.3     1  UNL1       -0.3843
     42 C         142.3959  141.7032  170.6051 C.3     1  UNL1        0.0587
     43 C         142.3519  140.2286  170.3334 C.3     1  UNL1        0.1165
     44 O         143.3912  139.3251  170.9280 O.3     1  UNL1       -0.3843
     45 C         141.2686  139.6576  169.4671 C.3     1  UNL1        0.0729
     46 H         142.1573  144.2819  170.8550 H       1  UNL1        0.2103
     47 H         144.0120  139.8504  171.4567 H       1  UNL1        0.2103
@<TRIPOS>BOND
     1    13    14    2
     2    14    15    1
     3    15    16    1
     4    16    17    1
     5    17    18   ar
     6    18    19   ar
     7    19    20   ar
     8    20    12    1
     9    12    10    1
    10    10     2    1
    11     2     3    1
    12     3     4    1
    13     4     5    1
    14     5     1    1
    15     1    25    1
    16    25    26    1
    17    26    27   ar
    18    27    28    1
    19    27    29   ar
    20    29    30   ar
    21    30    31   ar
    22    31    32   ar
    23    32    33   ar
    24    33    34   ar
    25    34    37    1
    26    37    38    1
    27    38    39    1
    28    39    40    1
    29    40    41    1
    30    40    42    1
    31    42    43    1
    32    43    44    1
    33    43    45    1
    34    34    35   ar
    35    35    36   ar
    36     5     6    1
    37     6     7    1
    38     5     8    1
    39     8     9    1
    40    20    21   ar
    41    21    22   ar
    42    22    23    1
    43    23    14   am
    44    22    17   ar
    45     7     2    1
    46     9     2    1
    47    36    26   ar
    48    36    31   ar
    49    45    38    1
    50    10    11    1
    51    41    46    1
    52    44    47    1
    53    23    24    1
@<TRIPOS>MOLECULE
*****
 47 53 0 0 0
SMALL
GASTEIGER

@<TRIPOS>ATOM
      1 C         137.9722  142.3732  163.6727 C.3     1  UNL1        0.0320
      2 C         141.8334  144.5628  162.9332 C.3     1  UNL1        0.0700
      3 C         141.4164  144.2302  164.3352 C.3     1  UNL1        0.0193
      4 C         140.1294  143.5004  164.5817 C.3     1  UNL1        0.0286
      5 C         139.2593  143.1031  163.4262 C.3     1  UNL1        0.0932
      6 C         139.6762  143.4357  162.0242 C.3     1  UNL1        0.0286
      7 C         140.9634  144.1655  161.7777 C.3     1  UNL1        0.0193
      8 O         139.9556  143.5017  163.2415 O.3     1  UNL1       -0.3572
      9 C         141.1194  144.1616  163.0185 C.3     1  UNL1        0.1562
     10 N         143.1204  145.2926  162.6867 N.3     1  UNL1       -0.2926
     11 H         143.0153  145.7833  161.7986 H       1  UNL1        0.1236
     12 C         144.4113  144.5323  162.6111 C.3     1  UNL1        0.1152
     13 O         143.0596  137.9388  158.6806 O.2     1  UNL1       -0.2707
     14 C         143.4955  138.6378  159.9341 C.2     1  UNL1        0.2718
     15 C         143.9167  137.8379  161.1311 C.3     1  UNL1        0.2898
     16 O         144.3526  138.5369  162.3847 O.3     1  UNL1       -0.4628
     17 C         144.3673  140.0357  162.4413 C.ar    1  UNL1        0.1708
     18 C         144.8032  140.7347  163.6948 C.ar    1  UNL1        0.0411
     19 C         144.8179  142.2335  163.7515 C.ar    1  UNL1        0.0193
     20 C         144.3966  143.0334  162.5545 C.ar    1  UNL1        0.0765
     21 N         143.9607  142.3345  161.3009 N.ar    1  UNL1       -0.2304
     22 C         143.9461  140.8356  161.2443 C.ar    1  UNL1        0.1682
     23 N         143.5102  140.1366  159.9908 N.am    1  UNL1       -0.2639
     24 H         143.2337  140.6616  159.2052 H       1  UNL1        0.1565
     25 C         137.9870  141.0335  164.3471 C.3     1  UNL1        0.0327
     26 C         138.7282  139.8881  163.7236 C.ar    1  UNL1        0.0261
     27 C         138.2022  139.2456  162.4743 C.ar    1  UNL1        0.1566
     28 F         136.9352  139.7485  161.8486 F       1  UNL1       -0.2028
     29 C         138.9434  138.1002  161.8509 C.ar    1  UNL1        0.1281
     30 N         140.2105  137.5973  162.4766 N.ar    1  UNL1       -0.2400
     31 C         140.7364  138.2397  163.7258 C.ar    1  UNL1        0.0990
     32 C         142.0035  137.7368  164.3516 C.ar    1  UNL1        0.0254
     33 C         142.5295  138.3794  165.6009 C.ar    1  UNL1        0.0593
     34 C         141.7883  139.5247  166.2243 C.ar    1  UNL1        0.2248
     35 N         140.5212  140.0276  165.5986 N.ar    1  UNL1       -0.2104
     36 C         139.9953  139.3852  164.3494 C.ar    1  UNL1        0.1002
     37 O         142.3142  140.1672  167.4736 O.3     1  UNL1       -0.4638
     38 C         141.3681  140.8231  168.4351 C.3     1  UNL1        0.1724
     39 C         141.5587  142.2628  168.8105 C.3     1  UNL1        0.0729
     40 C         140.6126  142.9187  169.7721 C.3     1  UNL1        0.1165
     41 O         140.8032  144.3584  170.1475 O.3     1  UNL1       -0.3843
     42 C         139.4759  142.1350  170.3582 C.3     1  UNL1        0.0587
     43 C         139.2852  140.6952  169.9828 C.3     1  UNL1        0.1165
     44 O         138.1485  139.9115  170.5689 O.3     1  UNL1       -0.3843
     45 C         140.2313  140.0393  169.0213 C.3     1  UNL1        0.0729
     46 H         140.1111  144.6237  170.7732 H       1  UNL1        0.2103
     47 H         137.6375  140.4802  171.1659 H       1  UNL1        0.2103
@<TRIPOS>BOND
     1    13    14    2
     2    14    15    1
     3    15    16    1
     4    16    17    1
     5    17    18   ar
     6    18    19   ar
     7    19    20   ar
     8    20    12    1
     9    12    10    1
    10    10     2    1
    11     2     3    1
    12     3     4    1
    13     4     5    1
    14     5     1    1
    15     1    25    1
    16    25    26    1
    17    26    27   ar
    18    27    28    1
    19    27    29   ar
    20    29    30   ar
    21    30    31   ar
    22    31    32   ar
    23    32    33   ar
    24    33    34   ar
    25    34    37    1
    26    37    38    1
    27    38    39    1
    28    39    40    1
    29    40    41    1
    30    40    42    1
    31    42    43    1
    32    43    44    1
    33    43    45    1
    34    34    35   ar
    35    35    36   ar
    36     5     6    1
    37     6     7    1
    38     5     8    1
    39     8     9    1
    40    20    21   ar
    41    21    22   ar
    42    22    23    1
    43    23    14   am
    44    22    17   ar
    45     7     2    1
    46     9     2    1
    47    36    26   ar
    48    36    31   ar
    49    45    38    1
    50    10    11    1
    51    41    46    1
    52    44    47    1
    53    23    24    1
@<TRIPOS>MOLECULE
*****
 47 53 0 0 0
SMALL
GASTEIGER

@<TRIPOS>ATOM
      1 C         138.8349  138.7859  164.8591 C.3     1  UNL1        0.0320
      2 C         137.9411  142.8397  163.1218 C.3     1  UNL1        0.0700
      3 C         138.2271  142.6983  164.5874 C.3     1  UNL1        0.0193
      4 C         138.5251  141.3471  165.1665 C.3     1  UNL1        0.0286
      5 C         138.5370  140.1372  164.2800 C.3     1  UNL1        0.0932
      6 C         138.2509  140.2785  162.8143 C.3     1  UNL1        0.0286
      7 C         137.9529  141.6298  162.2352 C.3     1  UNL1        0.0193
      8 O         138.3684  140.8567  163.9170 O.3     1  UNL1       -0.3572
      9 C         138.0990  142.0785  163.3933 C.3     1  UNL1        0.1562
     10 N         137.6431  144.1909  162.5426 N.3     1  UNL1       -0.2926
     11 H         137.3265  144.0376  161.5852 H       1  UNL1        0.1236
     12 C         138.7191  145.2343  162.4810 C.3     1  UNL1        0.1152
     13 O         144.1417  141.4128  158.3895 O.2     1  UNL1       -0.2707
     14 C         143.7639  142.2789  159.5544 C.2     1  UNL1        0.2718
     15 C         144.8158  142.7372  160.5206 C.3     1  UNL1        0.2898
     16 O         144.4380  143.6032  161.6855 O.3     1  UNL1       -0.4628
     17 C         143.0083  144.0110  161.8844 C.ar    1  UNL1        0.1708
     18 C         142.6305  144.8771  163.0494 C.ar    1  UNL1        0.0411
     19 C         141.2008  145.2848  163.2483 C.ar    1  UNL1        0.0193
     20 C         140.1488  144.8265  162.2821 C.ar    1  UNL1        0.0765
     21 N         140.5266  143.9605  161.1171 N.ar    1  UNL1       -0.2304
     22 C         141.9564  143.5527  160.9183 C.ar    1  UNL1        0.1682
     23 N         142.3342  142.6866  159.7533 N.am    1  UNL1       -0.2639
     24 H         141.6438  142.3859  159.1192 H       1  UNL1        0.1565
     25 C         140.2250  138.4555  165.3156 C.3     1  UNL1        0.0327
     26 C         141.3916  138.7015  164.4055 C.ar    1  UNL1        0.0261
     27 C         141.6399  137.7891  163.2410 C.ar    1  UNL1        0.1566
     28 F         140.7214  136.6308  162.9867 F       1  UNL1       -0.2028
     29 C         142.8066  138.0351  162.3309 C.ar    1  UNL1        0.1281
     30 N         143.7250  139.1935  162.5852 N.ar    1  UNL1       -0.2400
     31 C         143.4768  140.1058  163.7497 C.ar    1  UNL1        0.0990
     32 C         144.3953  141.2642  164.0040 C.ar    1  UNL1        0.0254
     33 C         144.1470  142.1765  165.1685 C.ar    1  UNL1        0.0593
     34 C         142.9804  141.9306  166.0786 C.ar    1  UNL1        0.2248
     35 N         142.0619  140.7722  165.8243 N.ar    1  UNL1       -0.2104
     36 C         142.3101  139.8599  164.6598 C.ar    1  UNL1        0.1002
     37 O         142.7322  142.8429  167.2430 O.3     1  UNL1       -0.4638
     38 C         142.2812  142.2766  168.5568 C.3     1  UNL1        0.1724
     39 C         141.0080  142.7607  169.1848 C.3     1  UNL1        0.0729
     40 C         140.5571  142.1944  170.4985 C.3     1  UNL1        0.1165
     41 O         139.2838  142.6785  171.1265 O.3     1  UNL1       -0.3843
     42 C         141.3794  141.1440  171.1843 C.3     1  UNL1        0.0587
     43 C         142.6527  140.6598  170.5563 C.3     1  UNL1        0.1165
     44 O         143.4751  139.6094  171.2420 O.3     1  UNL1       -0.3843
     45 C         143.1037  141.2261  169.2425 C.3     1  UNL1        0.0729
     46 H         139.1401  142.2137  171.9657 H       1  UNL1        0.2103
     47 H         143.0454  139.3540  172.0734 H       1  UNL1        0.2103
@<TRIPOS>BOND
     1    13    14    2
     2    14    15    1
     3    15    16    1
     4    16    17    1
     5    17    18   ar
     6    18    19   ar
     7    19    20   ar
     8    20    12    1
     9    12    10    1
    10    10     2    1
    11     2     3    1
    12     3     4    1
    13     4     5    1
    14     5     1    1
    15     1    25    1
    16    25    26    1
    17    26    27   ar
    18    27    28    1
    19    27    29   ar
    20    29    30   ar
    21    30    31   ar
    22    31    32   ar
    23    32    33   ar
    24    33    34   ar
    25    34    37    1
    26    37    38    1
    27    38    39    1
    28    39    40    1
    29    40    41    1
    30    40    42    1
    31    42    43    1
    32    43    44    1
    33    43    45    1
    34    34    35   ar
    35    35    36   ar
    36     5     6    1
    37     6     7    1
    38     5     8    1
    39     8     9    1
    40    20    21   ar
    41    21    22   ar
    42    22    23    1
    43    23    14   am
    44    22    17   ar
    45     7     2    1
    46     9     2    1
    47    36    26   ar
    48    36    31   ar
    49    45    38    1
    50    10    11    1
    51    41    46    1
    52    44    47    1
    53    23    24    1
@<TRIPOS>MOLECULE
*****
 47 53 0 0 0
SMALL
GASTEIGER

@<TRIPOS>ATOM
      1 C         137.8135  143.8868  164.6710 C.3     1  UNL1        0.0320
      2 C         138.1152  139.7382  162.9542 C.3     1  UNL1        0.0700
      3 C         137.6963  140.8830  162.0801 C.3     1  UNL1        0.0193
      4 C         137.5957  142.2658  162.6524 C.3     1  UNL1        0.0286
      5 C         137.9141  142.5040  164.0988 C.3     1  UNL1        0.0932
      6 C         138.3330  141.3592  164.9728 C.3     1  UNL1        0.0286
      7 C         138.4335  139.9763  164.4005 C.3     1  UNL1        0.0193
      8 O         137.9835  141.7287  163.8303 O.3     1  UNL1       -0.3572
      9 C         138.0744  140.4783  163.3128 C.3     1  UNL1        0.1562
     10 N         138.2157  138.3553  162.3819 N.3     1  UNL1       -0.2926
     11 H         137.6924  137.7401  163.0048 H       1  UNL1        0.1236
     12 C         139.5610  137.7235  162.1791 C.3     1  UNL1        0.1152
     13 O         142.9596  143.4494  158.1277 O.2     1  UNL1       -0.2707
     14 C         143.0240  142.3996  159.1972 C.2     1  UNL1        0.2718
     15 C         144.2857  142.2086  159.9856 C.3     1  UNL1        0.2898
     16 O         144.3501  141.1588  161.0551 O.3     1  UNL1       -0.4628
     17 C         143.1528  140.3000  161.3361 C.ar    1  UNL1        0.1708
     18 C         143.2173  139.2502  162.4055 C.ar    1  UNL1        0.0411
     19 C         142.0200  138.3914  162.6866 C.ar    1  UNL1        0.0193
     20 C         140.7583  138.5823  161.8981 C.ar    1  UNL1        0.0765
     21 N         140.6939  139.6321  160.8286 N.ar    1  UNL1       -0.2304
     22 C         141.8912  140.4910  160.5476 C.ar    1  UNL1        0.1682
     23 N         141.8268  141.5408  159.4782 N.am    1  UNL1       -0.2639
     24 H         140.9987  141.6661  158.9607 H       1  UNL1        0.1565
     25 C         139.0585  144.6768  164.9466 C.3     1  UNL1        0.0327
     26 C         140.2076  144.6258  163.9840 C.ar    1  UNL1        0.0261
     27 C         140.1009  145.3070  162.6518 C.ar    1  UNL1        0.1566
     28 F         138.8450  146.0392  162.2823 F       1  UNL1       -0.2028
     29 C         141.2501  145.2559  161.6891 C.ar    1  UNL1        0.1281
     30 N         142.5060  144.5237  162.0585 N.ar    1  UNL1       -0.2400
     31 C         142.6128  143.8425  163.3906 C.ar    1  UNL1        0.0990
     32 C         143.8687  143.1102  163.7601 C.ar    1  UNL1        0.0254
     33 C         143.9754  142.4290  165.0923 C.ar    1  UNL1        0.0593
     34 C         142.8263  142.4801  166.0549 C.ar    1  UNL1        0.2248
     35 N         141.5703  143.2124  165.6855 N.ar    1  UNL1       -0.2104
     36 C         141.4636  143.8935  164.3534 C.ar    1  UNL1        0.1002
     37 O         142.9330  141.7989  167.3870 O.3     1  UNL1       -0.4638
     38 C         141.6952  141.5126  168.1844 C.3     1  UNL1        0.1724
     39 C         140.7260  140.4682  167.7155 C.3     1  UNL1        0.0729
     40 C         139.4881  140.1819  168.5129 C.3     1  UNL1        0.1165
     41 O         138.5189  139.1375  168.0440 O.3     1  UNL1       -0.3843
     42 C         139.2195  140.9399  169.7790 C.3     1  UNL1        0.0587
     43 C         140.1887  141.9843  170.2479 C.3     1  UNL1        0.1165
     44 O         139.9200  142.7424  171.5140 O.3     1  UNL1       -0.3843
     45 C         141.4265  142.2707  169.4506 C.3     1  UNL1        0.0729
     46 H         137.7797  139.0784  168.6693 H       1  UNL1        0.2103
     47 H         139.0852  142.4373  171.9026 H       1  UNL1        0.2103
@<TRIPOS>BOND
     1    13    14    2
     2    14    15    1
     3    15    16    1
     4    16    17    1
     5    17    18   ar
     6    18    19   ar
     7    19    20   ar
     8    20    12    1
     9    12    10    1
    10    10     2    1
    11     2     3    1
    12     3     4    1
    13     4     5    1
    14     5     1    1
    15     1    25    1
    16    25    26    1
    17    26    27   ar
    18    27    28    1
    19    27    29   ar
    20    29    30   ar
    21    30    31   ar
    22    31    32   ar
    23    32    33   ar
    24    33    34   ar
    25    34    37    1
    26    37    38    1
    27    38    39    1
    28    39    40    1
    29    40    41    1
    30    40    42    1
    31    42    43    1
    32    43    44    1
    33    43    45    1
    34    34    35   ar
    35    35    36   ar
    36     5     6    1
    37     6     7    1
    38     5     8    1
    39     8     9    1
    40    20    21   ar
    41    21    22   ar
    42    22    23    1
    43    23    14   am
    44    22    17   ar
    45     7     2    1
    46     9     2    1
    47    36    26   ar
    48    36    31   ar
    49    45    38    1
    50    10    11    1
    51    41    46    1
    52    44    47    1
    53    23    24    1
@<TRIPOS>MOLECULE
*****
 47 53 0 0 0
SMALL
GASTEIGER

@<TRIPOS>ATOM
      1 C         142.3378  137.5809  161.9458 C.3     1  UNL1        0.0320
      2 C         144.9690  140.9376  163.3806 C.3     1  UNL1        0.0700
      3 C         144.4838  140.9192  161.9613 C.3     1  UNL1        0.0193
      4 C         143.6067  139.8003  161.4831 C.3     1  UNL1        0.0286
      5 C         143.2148  138.6998  162.4240 C.3     1  UNL1        0.0932
      6 C         143.7000  138.7182  163.8433 C.3     1  UNL1        0.0286
      7 C         144.5772  139.8372  164.3215 C.3     1  UNL1        0.0193
      8 O         143.6972  139.2918  162.7319 O.3     1  UNL1       -0.3572
      9 C         144.4903  140.3035  163.1644 C.3     1  UNL1        0.1562
     10 N         145.8461  142.0565  163.8588 N.3     1  UNL1       -0.2926
     11 H         146.5303  141.6439  164.4929 H       1  UNL1        0.1236
     12 C         145.2431  143.2283  164.5754 C.3     1  UNL1        0.1152
     13 O         139.2733  146.6754  160.9382 O.2     1  UNL1       -0.2707
     14 C         139.7923  145.7981  162.0387 C.2     1  UNL1        0.2718
     15 C         138.8405  145.1925  163.0272 C.3     1  UNL1        0.2898
     16 O         139.3595  144.3152  164.1276 O.3     1  UNL1       -0.4628
     17 C         140.8304  144.0435  164.2396 C.ar    1  UNL1        0.1708
     18 C         141.3494  143.1662  165.3400 C.ar    1  UNL1        0.0411
     19 C         142.8203  142.8945  165.4520 C.ar    1  UNL1        0.0193
     20 C         143.7722  143.5001  164.4635 C.ar    1  UNL1        0.0765
     21 N         143.2532  144.3773  163.3630 N.ar    1  UNL1       -0.2304
     22 C         141.7822  144.6491  163.2511 C.ar    1  UNL1        0.1682
     23 N         141.2632  145.5264  162.1507 N.am    1  UNL1       -0.2639
     24 H         141.8880  145.9238  161.5019 H       1  UNL1        0.1565
     25 C         140.9974  137.3550  162.5800 C.3     1  UNL1        0.0327
     26 C         139.9366  138.4115  162.4883 C.ar    1  UNL1        0.0261
     27 C         139.2351  138.6590  161.1857 C.ar    1  UNL1        0.1566
     28 F         139.5945  137.8499  159.9748 F       1  UNL1       -0.2028
     29 C         138.1744  139.7156  161.0940 C.ar    1  UNL1        0.1281
     30 N         137.8150  140.5247  162.3049 N.ar    1  UNL1       -0.2400
     31 C         138.5164  140.2773  163.6074 C.ar    1  UNL1        0.0990
     32 C         138.1571  141.0864  164.8183 C.ar    1  UNL1        0.0254
     33 C         138.8586  140.8389  166.1209 C.ar    1  UNL1        0.0593
     34 C         139.9193  139.7824  166.2126 C.ar    1  UNL1        0.2248
     35 N         140.2787  138.9733  165.0018 N.ar    1  UNL1       -0.2104
     36 C         139.5773  139.2207  163.6992 C.ar    1  UNL1        0.1002
     37 O         140.6208  139.5350  167.5152 O.3     1  UNL1       -0.4638
     38 C         141.0145  140.6908  168.3864 C.3     1  UNL1        0.1724
     39 C         142.4335  141.1770  168.3914 C.3     1  UNL1        0.0729
     40 C         142.8273  142.3328  169.2625 C.3     1  UNL1        0.1165
     41 O         144.2463  142.8190  169.2675 O.3     1  UNL1       -0.3843
     42 C         141.8021  143.0025  170.1288 C.3     1  UNL1        0.0587
     43 C         140.3830  142.5164  170.1238 C.3     1  UNL1        0.1165
     44 O         139.3578  143.1860  170.9901 O.3     1  UNL1       -0.3843
     45 C         139.9892  141.3605  169.2526 C.3     1  UNL1        0.0729
     46 H         144.3298  143.5664  169.8801 H       1  UNL1        0.2103
     47 H         139.7749  143.9084  171.4852 H       1  UNL1        0.2103
@<TRIPOS>BOND
     1    13    14    2
     2    14    15    1
     3    15    16    1
     4    16    17    1
     5    17    18   ar
     6    18    19   ar
     7    19    20   ar
     8    20    12    1
     9    12    10    1
    10    10     2    1
    11     2     3    1
    12     3     4    1
    13     4     5    1
    14     5     1    1
    15     1    25    1
    16    25    26    1
    17    26    27   ar
    18    27    28    1
    19    27    29   ar
    20    29    30   ar
    21    30    31   ar
    22    31    32   ar
    23    32    33   ar
    24    33    34   ar
    25    34    37    1
    26    37    38    1
    27    38    39    1
    28    39    40    1
    29    40    41    1
    30    40    42    1
    31    42    43    1
    32    43    44    1
    33    43    45    1
    34    34    35   ar
    35    35    36   ar
    36     5     6    1
    37     6     7    1
    38     5     8    1
    39     8     9    1
    40    20    21   ar
    41    21    22   ar
    42    22    23    1
    43    23    14   am
    44    22    17   ar
    45     7     2    1
    46     9     2    1
    47    36    26   ar
    48    36    31   ar
    49    45    38    1
    50    10    11    1
    51    41    46    1
    52    44    47    1
    53    23    24    1
@<TRIPOS>MOLECULE
*****
 47 53 0 0 0
SMALL
GASTEIGER

@<TRIPOS>ATOM
      1 C         138.3472  138.3016  163.1058 C.3     1  UNL1        0.0320
      2 C         137.8231  142.7625  162.8299 C.3     1  UNL1        0.0700
      3 C         137.9508  142.1039  164.1715 C.3     1  UNL1        0.0193
      4 C         138.1255  140.6170  164.2635 C.3     1  UNL1        0.0286
      5 C         138.1725  139.7885  163.0138 C.3     1  UNL1        0.0932
      6 C         138.0448  140.4471  161.6722 C.3     1  UNL1        0.0286
      7 C         137.8701  141.9341  161.5802 C.3     1  UNL1        0.0193
      8 O         138.0752  140.5999  162.9131 O.3     1  UNL1       -0.3572
      9 C         137.9172  141.9445  162.8299 C.3     1  UNL1        0.1562
     10 N         137.6484  144.2494  162.7379 N.3     1  UNL1       -0.2926
     11 H         137.0924  144.4294  161.9018 H       1  UNL1        0.1236
     12 C         138.8510  145.1424  162.6587 C.3     1  UNL1        0.1152
     13 O         145.8911  141.7986  162.7356 O.2     1  UNL1       -0.2707
     14 C         144.7726  142.4543  161.9813 C.2     1  UNL1        0.2718
     15 C         144.8823  142.6513  160.4983 C.3     1  UNL1        0.2898
     16 O         143.7638  143.3070  159.7441 O.3     1  UNL1       -0.4628
     17 C         142.5356  143.7659  160.4727 C.ar    1  UNL1        0.1708
     18 C         141.4172  144.4217  159.7184 C.ar    1  UNL1        0.0411
     19 C         140.1890  144.8805  160.4470 C.ar    1  UNL1        0.0193
     20 C         140.0792  144.6836  161.9301 C.ar    1  UNL1        0.0765
     21 N         141.1977  144.0278  162.6843 N.ar    1  UNL1       -0.2304
     22 C         142.4259  143.5689  161.9556 C.ar    1  UNL1        0.1682
     23 N         143.5444  142.9132  162.7099 N.am    1  UNL1       -0.2639
     24 H         143.4724  142.7839  163.6832 H       1  UNL1        0.1565
     25 C         139.6303  137.7282  163.6299 C.3     1  UNL1        0.0327
     26 C         140.9335  138.0894  162.9810 C.ar    1  UNL1        0.0261
     27 C         141.0462  138.1103  161.4853 C.ar    1  UNL1        0.1566
     28 F         139.8557  137.7701  160.6387 F       1  UNL1       -0.2028
     29 C         142.3494  138.4715  160.8364 C.ar    1  UNL1        0.1281
     30 N         143.5400  138.8117  161.6830 N.ar    1  UNL1       -0.2400
     31 C         143.4274  138.7908  163.1786 C.ar    1  UNL1        0.0990
     32 C         144.6179  139.1310  164.0252 C.ar    1  UNL1        0.0254
     33 C         144.5052  139.1101  165.5209 C.ar    1  UNL1        0.0593
     34 C         143.2020  138.7489  166.1698 C.ar    1  UNL1        0.2248
     35 N         142.0115  138.4087  165.3232 N.ar    1  UNL1       -0.2104
     36 C         142.1241  138.4296  163.8276 C.ar    1  UNL1        0.1002
     37 O         143.0894  138.7280  167.6654 O.3     1  UNL1       -0.4638
     38 C         142.2245  139.7332  168.3666 C.3     1  UNL1        0.1724
     39 C         141.7022  140.9242  167.6193 C.3     1  UNL1        0.0729
     40 C         140.8373  141.9294  168.3204 C.3     1  UNL1        0.1165
     41 O         140.3150  143.1204  167.5731 O.3     1  UNL1       -0.3843
     42 C         140.4947  141.7435  169.7688 C.3     1  UNL1        0.0587
     43 C         141.0171  140.5524  170.5162 C.3     1  UNL1        0.1165
     44 O         140.6745  140.3665  171.9647 O.3     1  UNL1       -0.3843
     45 C         141.8819  139.5472  169.8151 C.3     1  UNL1        0.0729
     46 H         139.7774  143.6656  168.1687 H       1  UNL1        0.2103
     47 H         140.1124  141.0995  172.2606 H       1  UNL1        0.2103
@<TRIPOS>BOND
     1    13    14    2
     2    14    15    1
     3    15    16    1
     4    16    17    1
     5    17    18   ar
     6    18    19   ar
     7    19    20   ar
     8    20    12    1
     9    12    10    1
    10    10     2    1
    11     2     3    1
    12     3     4    1
    13     4     5    1
    14     5     1    1
    15     1    25    1
    16    25    26    1
    17    26    27   ar
    18    27    28    1
    19    27    29   ar
    20    29    30   ar
    21    30    31   ar
    22    31    32   ar
    23    32    33   ar
    24    33    34   ar
    25    34    37    1
    26    37    38    1
    27    38    39    1
    28    39    40    1
    29    40    41    1
    30    40    42    1
    31    42    43    1
    32    43    44    1
    33    43    45    1
    34    34    35   ar
    35    35    36   ar
    36     5     6    1
    37     6     7    1
    38     5     8    1
    39     8     9    1
    40    20    21   ar
    41    21    22   ar
    42    22    23    1
    43    23    14   am
    44    22    17   ar
    45     7     2    1
    46     9     2    1
    47    36    26   ar
    48    36    31   ar
    49    45    38    1
    50    10    11    1
    51    41    46    1
    52    44    47    1
    53    23    24    1
@<TRIPOS>MOLECULE
*****
 47 53 0 0 0
SMALL
GASTEIGER

@<TRIPOS>ATOM
      1 C         137.9548  143.9480  164.7623 C.3     1  UNL1        0.0320
      2 C         137.9753  139.8568  162.8884 C.3     1  UNL1        0.0700
      3 C         137.6288  141.0590  162.0609 C.3     1  UNL1        0.0193
      4 C         137.6220  142.4227  162.6856 C.3     1  UNL1        0.0286
      5 C         137.9616  142.5843  164.1377 C.3     1  UNL1        0.0932
      6 C         138.3082  141.3821  164.9651 C.3     1  UNL1        0.0286
      7 C         138.3150  140.0183  164.3404 C.3     1  UNL1        0.0193
      8 O         137.9787  141.8169  163.8397 O.3     1  UNL1       -0.3572
      9 C         137.9849  140.5838  163.2749 C.3     1  UNL1        0.1562
     10 N         137.9822  138.4931  162.2637 N.3     1  UNL1       -0.2926
     11 H         137.6444  137.8426  162.9731 H       1  UNL1        0.1236
     12 C         139.2601  137.9212  161.7252 C.3     1  UNL1        0.1152
     13 O         145.1674  142.7307  160.0752 O.2     1  UNL1       -0.2707
     14 C         144.0025  141.9011  159.6228 C.2     1  UNL1        0.2718
     15 C         143.6417  141.8451  158.1679 C.3     1  UNL1        0.2898
     16 O         142.4767  141.0155  157.7155 O.3     1  UNL1       -0.4628
     17 C         141.6726  140.2420  158.7179 C.ar    1  UNL1        0.1708
     18 C         140.5077  139.4124  158.2655 C.ar    1  UNL1        0.0411
     19 C         139.7035  138.6388  159.2679 C.ar    1  UNL1        0.0193
     20 C         140.0643  138.6948  160.7228 C.ar    1  UNL1        0.0765
     21 N         141.2292  139.5244  161.1753 N.ar    1  UNL1       -0.2304
     22 C         142.0334  140.2980  160.1728 C.ar    1  UNL1        0.1682
     23 N         143.1983  141.1276  160.6252 N.am    1  UNL1       -0.2639
     24 H         143.4351  141.1643  161.5801 H       1  UNL1        0.1565
     25 C         139.2406  144.7013  164.9328 C.3     1  UNL1        0.0327
     26 C         140.3581  144.5094  163.9508 C.ar    1  UNL1        0.0261
     27 C         140.2661  145.1157  162.5818 C.ar    1  UNL1        0.1566
     28 F         139.0565  145.9139  162.1949 F       1  UNL1       -0.2028
     29 C         141.3836  144.9238  161.5999 C.ar    1  UNL1        0.1281
     30 N         142.5932  144.1256  161.9868 N.ar    1  UNL1       -0.2400
     31 C         142.6853  143.5193  163.3557 C.ar    1  UNL1        0.0990
     32 C         143.8949  142.7211  163.7427 C.ar    1  UNL1        0.0254
     33 C         143.9870  142.1148  165.1116 C.ar    1  UNL1        0.0593
     34 C         142.8695  142.3068  166.0936 C.ar    1  UNL1        0.2248
     35 N         141.6599  143.1050  165.7066 N.ar    1  UNL1       -0.2104
     36 C         141.5678  143.7112  164.3378 C.ar    1  UNL1        0.1002
     37 O         142.9616  141.7005  167.4625 O.3     1  UNL1       -0.4638
     38 C         141.7127  141.4248  168.2462 C.3     1  UNL1        0.1724
     39 C         141.4598  142.1511  169.5340 C.3     1  UNL1        0.0729
     40 C         140.2109  141.8755  170.3178 C.3     1  UNL1        0.1165
     41 O         139.9579  142.6018  171.6056 O.3     1  UNL1       -0.3843
     42 C         139.2149  140.8735  169.8138 C.3     1  UNL1        0.0587
     43 C         139.4678  140.1471  168.5259 C.3     1  UNL1        0.1165
     44 O         138.4719  139.1452  168.0219 O.3     1  UNL1       -0.3843
     45 C         140.7167  140.4228  167.7422 C.3     1  UNL1        0.0729
     46 H         139.1132  142.3086  171.9816 H       1  UNL1        0.2103
     47 H         137.7285  139.0878  168.6425 H       1  UNL1        0.2103
@<TRIPOS>BOND
     1    13    14    2
     2    14    15    1
     3    15    16    1
     4    16    17    1
     5    17    18   ar
     6    18    19   ar
     7    19    20   ar
     8    20    12    1
     9    12    10    1
    10    10     2    1
    11     2     3    1
    12     3     4    1
    13     4     5    1
    14     5     1    1
    15     1    25    1
    16    25    26    1
    17    26    27   ar
    18    27    28    1
    19    27    29   ar
    20    29    30   ar
    21    30    31   ar
    22    31    32   ar
    23    32    33   ar
    24    33    34   ar
    25    34    37    1
    26    37    38    1
    27    38    39    1
    28    39    40    1
    29    40    41    1
    30    40    42    1
    31    42    43    1
    32    43    44    1
    33    43    45    1
    34    34    35   ar
    35    35    36   ar
    36     5     6    1
    37     6     7    1
    38     5     8    1
    39     8     9    1
    40    20    21   ar
    41    21    22   ar
    42    22    23    1
    43    23    14   am
    44    22    17   ar
    45     7     2    1
    46     9     2    1
    47    36    26   ar
    48    36    31   ar
    49    45    38    1
    50    10    11    1
    51    41    46    1
    52    44    47    1
    53    23    24    1
