@<TRIPOS>MOLECULE
*****
 33 37 0 0 0
SMALL
GASTEIGER

@<TRIPOS>ATOM
      1 N         141.5352  137.6516  163.8059 N.pl3   1  UNL1       -0.2802
      2 H         141.4445  136.6713  163.8110 H       1  UNL1        0.1552
      3 C         141.5971  138.3923  162.5030 C.ar    1  UNL1        0.2208
      4 N         141.5765  137.6352  161.2083 N.ar    1  UNL1       -0.2111
      5 C         141.6384  138.3759  159.9054 C.ar    1  UNL1        0.1147
      6 C         141.7209  139.8736  159.8973 C.ar    1  UNL1        0.0960
      7 CL        141.7828  140.6143  158.5944 Cl      1  UNL1       -0.0790
      8 C         141.7416  140.6307  161.1921 C.ar    1  UNL1        0.1138
      9 N         141.6797  139.8900  162.4949 N.ar    1  UNL1       -0.2111
     10 C         141.8242  142.1284  161.1840 C.ar    1  UNL1        0.1031
     11 C         142.9816  142.9449  160.6904 C.ar    1  UNL1        0.1196
     12 N         142.6365  144.3937  160.8694 N.ar    1  UNL1       -0.2248
     13 C         141.2658  144.4725  161.4736 C.ar    1  UNL1        0.1479
     14 C         140.4101  145.6382  161.8719 C.ar    1  UNL1        0.0374
     15 C         139.0522  145.4039  162.4646 C.ar    1  UNL1        0.0046
     16 C         138.5502  144.0039  162.6590 C.ar    1  UNL1        0.0191
     17 C         139.4059  142.8382  162.2608 C.ar    1  UNL1        0.0815
     18 N         140.7638  143.0725  161.6681 N.ar    1  UNL1       -0.2874
     19 C         140.3886  139.0764  165.6512 C.ar    1  UNL1        0.1517
     20 C         140.4650  139.8293  166.9465 C.ar    1  UNL1        0.0339
     21 C         141.7644  139.9101  167.6914 C.ar    1  UNL1       -0.0193
     22 C         142.9874  139.2381  167.1412 C.ar    1  UNL1       -0.0028
     23 C         142.9110  138.4853  165.8461 C.ar    1  UNL1        0.0174
     24 C         141.6116  138.4044  165.1011 C.ar    1  UNL1        0.0849
     25 C         141.8408  140.6629  168.9865 C.3     1  UNL1        0.0252
     26 C         141.0199  140.2197  170.1611 C.3     1  UNL1        0.0215
     27 C         141.0962  140.9725  171.4564 C.3     1  UNL1        0.0689
     28 N         141.9933  142.1685  171.5769 N.3     1  UNL1       -0.2974
     29 C         142.8142  142.6117  170.4023 C.3     1  UNL1        0.0689
     30 C         142.7379  141.8590  169.1071 C.3     1  UNL1        0.0215
     31 H         142.6466  141.9713  172.3350 H       1  UNL1        0.1232
     32 C         138.2491  140.2254  164.7280 C.3     1  UNL1        0.2525
     33 O         139.0891  138.9955  164.9063 O.3     1  UNL1       -0.4702
@<TRIPOS>BOND
     1    32    33    1
     2    33    19    1
     3    19    20   ar
     4    20    21   ar
     5    21    25    1
     6    25    26    1
     7    26    27    1
     8    27    28    1
     9    28    29    1
    10    29    30    1
    11    21    22   ar
    12    22    23   ar
    13    23    24   ar
    14    24     1    1
    15     1     3    1
    16     3     4   ar
    17     4     5   ar
    18     5     6   ar
    19     6     7    1
    20     6     8   ar
    21     8    10    1
    22    10    11   ar
    23    11    12   ar
    24    12    13   ar
    25    13    14   ar
    26    14    15   ar
    27    15    16   ar
    28    16    17   ar
    29    17    18   ar
    30     8     9   ar
    31    24    19   ar
    32     9     3   ar
    33    30    25    1
    34    18    10   ar
    35    18    13   ar
    36    28    31    1
    37     1     2    1
@<TRIPOS>MOLECULE
*****
 33 37 0 0 0
SMALL
GASTEIGER

@<TRIPOS>ATOM
      1 N         137.2188  141.0494  163.3587 N.pl3   1  UNL1       -0.2802
      2 H         136.2468  141.1277  163.4937 H       1  UNL1        0.1552
      3 C         137.7576  140.5870  162.0374 C.ar    1  UNL1        0.2208
      4 N         138.2717  139.1860  161.8859 N.ar    1  UNL1       -0.2111
      5 C         138.8104  138.7237  160.5645 C.ar    1  UNL1        0.1147
      6 C         138.8351  139.6623  159.3947 C.ar    1  UNL1        0.0960
      7 CL        139.3739  139.1999  158.0734 Cl      1  UNL1       -0.0790
      8 C         138.3210  141.0633  159.5463 C.ar    1  UNL1        0.1138
      9 N         137.7823  141.5256  160.8676 N.ar    1  UNL1       -0.2111
     10 C         138.3457  142.0019  158.3765 C.ar    1  UNL1        0.1031
     11 C         139.2912  143.1510  158.1878 C.ar    1  UNL1        0.1196
     12 N         138.9590  143.8154  156.8847 N.ar    1  UNL1       -0.2248
     13 C         137.8082  143.0770  156.2680 C.ar    1  UNL1        0.1479
     14 C         137.0565  143.2805  154.9860 C.ar    1  UNL1        0.0374
     15 C         135.9257  142.3631  154.6260 C.ar    1  UNL1        0.0046
     16 C         135.5466  141.2423  155.5480 C.ar    1  UNL1        0.0191
     17 C         136.2983  141.0388  156.8300 C.ar    1  UNL1        0.0815
     18 N         137.4291  141.9562  157.1900 N.ar    1  UNL1       -0.2874
     19 C         138.5797  140.3363  165.4538 C.ar    1  UNL1        0.1517
     20 C         139.5219  140.6794  166.5695 C.ar    1  UNL1        0.0339
     21 C         140.0454  142.0785  166.7056 C.ar    1  UNL1       -0.0193
     22 C         139.6267  143.1345  165.7261 C.ar    1  UNL1       -0.0028
     23 C         138.6845  142.7914  164.6105 C.ar    1  UNL1        0.0174
     24 C         138.1610  141.3923  164.4743 C.ar    1  UNL1        0.0849
     25 C         140.9876  142.4214  167.8212 C.3     1  UNL1        0.0252
     26 C         142.4269  142.0067  167.7414 C.3     1  UNL1        0.0215
     27 C         143.3692  142.3497  168.8571 C.3     1  UNL1        0.0689
     28 N         142.8721  143.1073  170.0524 N.3     1  UNL1       -0.2974
     29 C         141.4327  143.5219  170.1322 C.3     1  UNL1        0.0689
     30 C         140.4905  143.1790  169.0166 C.3     1  UNL1        0.0215
     31 H         143.4280  143.9603  170.1124 H       1  UNL1        0.1232
     32 C         139.0079  137.7979  165.1025 C.3     1  UNL1        0.2525
     33 O         138.0562  138.9372  165.3178 O.3     1  UNL1       -0.4702
@<TRIPOS>BOND
     1    32    33    1
     2    33    19    1
     3    19    20   ar
     4    20    21   ar
     5    21    25    1
     6    25    26    1
     7    26    27    1
     8    27    28    1
     9    28    29    1
    10    29    30    1
    11    21    22   ar
    12    22    23   ar
    13    23    24   ar
    14    24     1    1
    15     1     3    1
    16     3     4   ar
    17     4     5   ar
    18     5     6   ar
    19     6     7    1
    20     6     8   ar
    21     8    10    1
    22    10    11   ar
    23    11    12   ar
    24    12    13   ar
    25    13    14   ar
    26    14    15   ar
    27    15    16   ar
    28    16    17   ar
    29    17    18   ar
    30     8     9   ar
    31    24    19   ar
    32     9     3   ar
    33    30    25    1
    34    18    10   ar
    35    18    13   ar
    36    28    31    1
    37     1     2    1
@<TRIPOS>MOLECULE
*****
 33 37 0 0 0
SMALL
GASTEIGER

@<TRIPOS>ATOM
      1 N         137.2905  140.6141  163.7077 N.pl3   1  UNL1       -0.2802
      2 H         136.3437  140.8799  163.7543 H       1  UNL1        0.1552
      3 C         137.8987  140.2337  162.3903 C.ar    1  UNL1        0.2208
      4 N         138.4131  138.8411  162.1760 N.ar    1  UNL1       -0.2111
      5 C         139.0213  138.4607  160.8587 C.ar    1  UNL1        0.1147
      6 C         139.1151  139.4730  159.7557 C.ar    1  UNL1        0.0960
      7 CL        139.7233  139.0926  158.4384 Cl      1  UNL1       -0.0790
      8 C         138.6007  140.8657  159.9700 C.ar    1  UNL1        0.1138
      9 N         137.9925  141.2460  161.2873 N.ar    1  UNL1       -0.2111
     10 C         138.6945  141.8779  158.8670 C.ar    1  UNL1        0.1031
     11 C         139.6565  143.0271  158.8044 C.ar    1  UNL1        0.1196
     12 N         139.3992  143.7780  157.5317 N.ar    1  UNL1       -0.2248
     13 C         138.2783  143.0930  156.8077 C.ar    1  UNL1        0.1479
     14 C         137.5979  143.3868  155.5036 C.ar    1  UNL1        0.0374
     15 C         136.4820  142.5062  155.0248 C.ar    1  UNL1        0.0046
     16 C         136.0464  141.3319  155.8501 C.ar    1  UNL1        0.0191
     17 C         136.7268  141.0381  157.1542 C.ar    1  UNL1        0.0815
     18 N         137.8427  141.9186  157.6330 N.ar    1  UNL1       -0.2874
     19 C         139.0202  141.7480  165.2801 C.ar    1  UNL1        0.1517
     20 C         139.8545  141.7234  166.5265 C.ar    1  UNL1        0.0339
     21 C         139.7933  140.5405  167.4468 C.ar    1  UNL1       -0.0193
     22 C         138.8978  139.3821  167.1207 C.ar    1  UNL1       -0.0028
     23 C         138.0636  139.4067  165.8743 C.ar    1  UNL1        0.0174
     24 C         138.1248  140.5896  164.9540 C.ar    1  UNL1        0.0849
     25 C         140.6276  140.5159  168.6931 C.3     1  UNL1        0.0252
     26 C         140.2277  141.3420  169.8795 C.3     1  UNL1        0.0215
     27 C         141.0620  141.3176  171.1260 C.3     1  UNL1        0.0689
     28 N         142.2960  140.4671  171.1858 N.3     1  UNL1       -0.2974
     29 C         142.6959  139.6409  169.9993 C.3     1  UNL1        0.0689
     30 C         141.8617  139.6654  168.7530 C.3     1  UNL1        0.0215
     31 H         142.1711  139.8214  171.9655 H       1  UNL1        0.1232
     32 C         138.1511  144.0895  164.5647 C.3     1  UNL1        0.2525
     33 O         139.0815  142.9309  164.3598 O.3     1  UNL1       -0.4702
@<TRIPOS>BOND
     1    32    33    1
     2    33    19    1
     3    19    20   ar
     4    20    21   ar
     5    21    25    1
     6    25    26    1
     7    26    27    1
     8    27    28    1
     9    28    29    1
    10    29    30    1
    11    21    22   ar
    12    22    23   ar
    13    23    24   ar
    14    24     1    1
    15     1     3    1
    16     3     4   ar
    17     4     5   ar
    18     5     6   ar
    19     6     7    1
    20     6     8   ar
    21     8    10    1
    22    10    11   ar
    23    11    12   ar
    24    12    13   ar
    25    13    14   ar
    26    14    15   ar
    27    15    16   ar
    28    16    17   ar
    29    17    18   ar
    30     8     9   ar
    31    24    19   ar
    32     9     3   ar
    33    30    25    1
    34    18    10   ar
    35    18    13   ar
    36    28    31    1
    37     1     2    1
@<TRIPOS>MOLECULE
*****
 33 37 0 0 0
SMALL
GASTEIGER

@<TRIPOS>ATOM
      1 N         137.3668  140.7371  163.8129 N.pl3   1  UNL1       -0.2802
      2 H         136.4305  141.0371  163.8628 H       1  UNL1        0.1552
      3 C         137.9521  140.3218  162.4957 C.ar    1  UNL1        0.2208
      4 N         138.4567  138.9219  162.3072 N.ar    1  UNL1       -0.2111
      5 C         139.0420  138.5066  160.9900 C.ar    1  UNL1        0.1147
      6 C         139.1227  139.4912  159.8613 C.ar    1  UNL1        0.0960
      7 CL        139.7079  139.0759  158.5441 Cl      1  UNL1       -0.0790
      8 C         138.6180  140.8912  160.0498 C.ar    1  UNL1        0.1138
      9 N         138.0328  141.3064  161.3670 N.ar    1  UNL1       -0.2111
     10 C         138.6986  141.8759  158.9211 C.ar    1  UNL1        0.1031
     11 C         137.8924  141.8358  157.6568 C.ar    1  UNL1        0.1196
     12 N         138.2952  143.0086  156.8129 N.ar    1  UNL1       -0.2248
     13 C         139.3503  143.7736  157.5556 C.ar    1  UNL1        0.1479
     14 C         140.1163  145.0171  157.2138 C.ar    1  UNL1        0.0374
     15 C         141.1315  145.5606  158.1749 C.ar    1  UNL1        0.0046
     16 C         141.3809  144.8605  159.4779 C.ar    1  UNL1        0.0191
     17 C         140.6149  143.6169  159.8197 C.ar    1  UNL1        0.0815
     18 N         139.5997  143.0735  158.8585 N.ar    1  UNL1       -0.2874
     19 C         139.1227  141.8390  165.3790 C.ar    1  UNL1        0.1517
     20 C         139.9640  141.7971  166.6202 C.ar    1  UNL1        0.0339
     21 C         139.8907  140.6117  167.5364 C.ar    1  UNL1       -0.0193
     22 C         138.9761  139.4681  167.2114 C.ar    1  UNL1       -0.0028
     23 C         138.1349  139.5099  165.9702 C.ar    1  UNL1        0.0174
     24 C         138.2081  140.6953  165.0540 C.ar    1  UNL1        0.0849
     25 C         140.7320  140.5699  168.7775 C.3     1  UNL1        0.0252
     26 C         140.4182  141.4808  169.9272 C.3     1  UNL1        0.0215
     27 C         141.2595  141.4391  171.1684 C.3     1  UNL1        0.0689
     28 N         142.4145  140.4866  171.2599 N.3     1  UNL1       -0.2974
     29 C         142.7283  139.5756  170.1102 C.3     1  UNL1        0.0689
     30 C         141.8870  139.6173  168.8690 C.3     1  UNL1        0.0215
     31 H         142.2410  139.8903  172.0691 H       1  UNL1        0.1232
     32 C         138.4462  144.2794  164.7987 C.3     1  UNL1        0.2525
     33 O         139.1960  143.0244  164.4628 O.3     1  UNL1       -0.4702
@<TRIPOS>BOND
     1    32    33    1
     2    33    19    1
     3    19    20   ar
     4    20    21   ar
     5    21    25    1
     6    25    26    1
     7    26    27    1
     8    27    28    1
     9    28    29    1
    10    29    30    1
    11    21    22   ar
    12    22    23   ar
    13    23    24   ar
    14    24     1    1
    15     1     3    1
    16     3     4   ar
    17     4     5   ar
    18     5     6   ar
    19     6     7    1
    20     6     8   ar
    21     8    10    1
    22    10    11   ar
    23    11    12   ar
    24    12    13   ar
    25    13    14   ar
    26    14    15   ar
    27    15    16   ar
    28    16    17   ar
    29    17    18   ar
    30     8     9   ar
    31    24    19   ar
    32     9     3   ar
    33    30    25    1
    34    18    10   ar
    35    18    13   ar
    36    28    31    1
    37     1     2    1
@<TRIPOS>MOLECULE
*****
 33 37 0 0 0
SMALL
GASTEIGER

@<TRIPOS>ATOM
      1 N         141.8476  137.3295  163.7362 N.pl3   1  UNL1       -0.2802
      2 H         141.5412  136.3941  163.7536 H       1  UNL1        0.1552
      3 C         142.2755  137.9546  162.4416 C.ar    1  UNL1        0.2208
      4 N         143.6076  138.6370  162.3423 N.ar    1  UNL1       -0.2111
      5 C         144.0354  139.2620  161.0476 C.ar    1  UNL1        0.1147
      6 C         143.1312  139.2047  159.8522 C.ar    1  UNL1        0.0960
      7 CL        143.5590  139.8297  158.5575 Cl      1  UNL1       -0.0790
      8 C         141.7990  138.5222  159.9515 C.ar    1  UNL1        0.1138
      9 N         141.3712  137.8972  161.2461 N.ar    1  UNL1       -0.2111
     10 C         140.8948  138.4649  158.7560 C.ar    1  UNL1        0.1031
     11 C         139.6152  139.2278  158.5810 C.ar    1  UNL1        0.1196
     12 N         139.0410  138.8689  157.2425 N.ar    1  UNL1       -0.2248
     13 C         139.9657  137.8843  156.5903 C.ar    1  UNL1        0.1479
     14 C         139.9125  137.1828  155.2655 C.ar    1  UNL1        0.0374
     15 C         141.0050  136.2317  154.8762 C.ar    1  UNL1        0.0046
     16 C         142.1507  135.9819  155.8116 C.ar    1  UNL1        0.0191
     17 C         142.2039  136.6834  157.1363 C.ar    1  UNL1        0.0815
     18 N         141.1114  137.6346  157.5257 N.ar    1  UNL1       -0.2874
     19 C         140.6663  138.8732  165.4600 C.ar    1  UNL1        0.1517
     20 C         140.7054  139.6734  166.7283 C.ar    1  UNL1        0.0339
     21 C         141.9650  139.7298  167.5409 C.ar    1  UNL1       -0.0193
     22 C         143.1854  138.9861  167.0853 C.ar    1  UNL1       -0.0028
     23 C         143.1462  138.1861  165.8171 C.ar    1  UNL1        0.0174
     24 C         141.8867  138.1296  165.0044 C.ar    1  UNL1        0.0849
     25 C         142.0040  140.5299  168.8090 C.3     1  UNL1        0.0252
     26 C         141.1180  140.1549  169.9599 C.3     1  UNL1        0.0215
     27 C         141.1570  140.9550  171.2282 C.3     1  UNL1        0.0689
     28 N         142.0820  142.1299  171.3455 N.3     1  UNL1       -0.2974
     29 C         142.9680  142.5049  170.1946 C.3     1  UNL1        0.0689
     30 C         142.9290  141.7048  168.9264 C.3     1  UNL1        0.0215
     31 H         142.6941  141.9446  172.1401 H       1  UNL1        0.1232
     32 C         138.3365  139.8480  164.8502 C.3     1  UNL1        0.2525
     33 O         139.4067  138.8168  164.6474 O.3     1  UNL1       -0.4702
@<TRIPOS>BOND
     1    32    33    1
     2    33    19    1
     3    19    20   ar
     4    20    21   ar
     5    21    25    1
     6    25    26    1
     7    26    27    1
     8    27    28    1
     9    28    29    1
    10    29    30    1
    11    21    22   ar
    12    22    23   ar
    13    23    24   ar
    14    24     1    1
    15     1     3    1
    16     3     4   ar
    17     4     5   ar
    18     5     6   ar
    19     6     7    1
    20     6     8   ar
    21     8    10    1
    22    10    11   ar
    23    11    12   ar
    24    12    13   ar
    25    13    14   ar
    26    14    15   ar
    27    15    16   ar
    28    16    17   ar
    29    17    18   ar
    30     8     9   ar
    31    24    19   ar
    32     9     3   ar
    33    30    25    1
    34    18    10   ar
    35    18    13   ar
    36    28    31    1
    37     1     2    1
@<TRIPOS>MOLECULE
*****
 33 37 0 0 0
SMALL
GASTEIGER

@<TRIPOS>ATOM
      1 N         139.6940  137.4796  163.8018 N.pl3   1  UNL1       -0.2802
      2 H         139.6943  136.4980  163.8767 H       1  UNL1        0.1552
      3 C         139.5064  138.1295  162.4630 C.ar    1  UNL1        0.2208
      4 N         138.1508  138.6232  162.0523 N.ar    1  UNL1       -0.2111
      5 C         137.9632  139.2731  160.7135 C.ar    1  UNL1        0.1147
      6 C         139.1312  139.4293  159.7853 C.ar    1  UNL1        0.0960
      7 CL        138.9436  140.0792  158.4465 Cl      1  UNL1       -0.0790
      8 C         140.4868  138.9355  160.1960 C.ar    1  UNL1        0.1138
      9 N         140.6743  138.2857  161.5348 N.ar    1  UNL1       -0.2111
     10 C         141.6548  139.0917  159.2679 C.ar    1  UNL1        0.1031
     11 C         142.1935  138.0400  158.3440 C.ar    1  UNL1        0.1196
     12 N         143.3608  138.6253  157.6058 N.ar    1  UNL1       -0.2248
     13 C         143.5434  140.0388  158.0735 C.ar    1  UNL1        0.1479
     14 C         144.5335  141.1007  157.6966 C.ar    1  UNL1        0.0374
     15 C         144.4693  142.4508  158.3471 C.ar    1  UNL1        0.0046
     16 C         143.4150  142.7390  159.3743 C.ar    1  UNL1        0.0191
     17 C         142.4248  141.6771  159.7511 C.ar    1  UNL1        0.0815
     18 N         142.4890  140.3271  159.1007 N.ar    1  UNL1       -0.2874
     19 C         141.2459  138.8337  165.3855 C.ar    1  UNL1        0.1517
     20 C         141.4330  139.6794  166.6102 C.ar    1  UNL1        0.0339
     21 C         140.2553  140.0167  167.4758 C.ar    1  UNL1       -0.0193
     22 C         138.8905  139.5083  167.1167 C.ar    1  UNL1       -0.0028
     23 C         138.7035  138.6626  165.8921 C.ar    1  UNL1        0.0174
     24 C         139.8811  138.3253  165.0264 C.ar    1  UNL1        0.0849
     25 C         140.4425  140.8624  168.7004 C.3     1  UNL1        0.0252
     26 C         140.4153  142.3581  168.5903 C.3     1  UNL1        0.0215
     27 C         140.6025  143.2039  169.8149 C.3     1  UNL1        0.0689
     28 N         140.8168  142.5539  171.1496 N.3     1  UNL1       -0.2974
     29 C         140.8440  141.0582  171.2598 C.3     1  UNL1        0.0689
     30 C         140.6568  140.2124  170.0352 C.3     1  UNL1        0.0215
     31 H         140.0676  142.8805  171.7599 H       1  UNL1        0.1232
     32 C         143.8032  138.9146  164.9343 C.3     1  UNL1        0.2525
     33 O         142.4236  138.4964  164.5199 O.3     1  UNL1       -0.4702
@<TRIPOS>BOND
     1    32    33    1
     2    33    19    1
     3    19    20   ar
     4    20    21   ar
     5    21    25    1
     6    25    26    1
     7    26    27    1
     8    27    28    1
     9    28    29    1
    10    29    30    1
    11    21    22   ar
    12    22    23   ar
    13    23    24   ar
    14    24     1    1
    15     1     3    1
    16     3     4   ar
    17     4     5   ar
    18     5     6   ar
    19     6     7    1
    20     6     8   ar
    21     8    10    1
    22    10    11   ar
    23    11    12   ar
    24    12    13   ar
    25    13    14   ar
    26    14    15   ar
    27    15    16   ar
    28    16    17   ar
    29    17    18   ar
    30     8     9   ar
    31    24    19   ar
    32     9     3   ar
    33    30    25    1
    34    18    10   ar
    35    18    13   ar
    36    28    31    1
    37     1     2    1
@<TRIPOS>MOLECULE
*****
 33 37 0 0 0
SMALL
GASTEIGER

@<TRIPOS>ATOM
      1 N         137.6170  141.3194  162.8618 N.pl3   1  UNL1       -0.2802
      2 H         136.6343  141.3353  162.8050 H       1  UNL1        0.1552
      3 C         138.4432  141.5674  161.6347 C.ar    1  UNL1        0.2208
      4 N         138.2205  142.8059  160.8183 N.ar    1  UNL1       -0.2111
      5 C         139.0467  143.0539  159.5912 C.ar    1  UNL1        0.1147
      6 C         140.0957  142.0634  159.1805 C.ar    1  UNL1        0.0960
      7 CL        140.9219  142.3115  157.9533 Cl      1  UNL1       -0.0790
      8 C         140.3184  140.8249  159.9969 C.ar    1  UNL1        0.1138
      9 N         139.4922  140.5769  161.2240 N.ar    1  UNL1       -0.2111
     10 C         141.3674  139.8344  159.5862 C.ar    1  UNL1        0.1031
     11 C         142.7344  139.6972  160.1883 C.ar    1  UNL1        0.1196
     12 N         143.4453  138.5853  159.4755 N.ar    1  UNL1       -0.2248
     13 C         142.5177  138.0353  158.4328 C.ar    1  UNL1        0.1479
     14 C         142.6766  136.9312  157.4300 C.ar    1  UNL1        0.0374
     15 C         141.5512  136.5992  156.4955 C.ar    1  UNL1        0.0046
     16 C         140.2669  137.3712  156.5640 C.ar    1  UNL1        0.0191
     17 C         140.1081  138.4753  157.5668 C.ar    1  UNL1        0.0815
     18 N         141.2335  138.8073  158.5013 N.ar    1  UNL1       -0.2874
     19 C         139.0665  142.1317  164.8591 C.ar    1  UNL1        0.1517
     20 C         139.7375  141.8592  166.1728 C.ar    1  UNL1        0.0339
     21 C         139.6300  140.5021  166.8026 C.ar    1  UNL1       -0.0193
     22 C         138.8515  139.4175  166.1189 C.ar    1  UNL1       -0.0028
     23 C         138.1805  139.6899  164.8053 C.ar    1  UNL1        0.0174
     24 C         138.2880  141.0470  164.1754 C.ar    1  UNL1        0.0849
     25 C         140.3010  140.2298  168.1162 C.3     1  UNL1        0.0252
     26 C         141.7441  139.8219  168.1509 C.3     1  UNL1        0.0215
     27 C         142.4152  139.5495  169.4645 C.3     1  UNL1        0.0689
     28 N         141.6432  139.6851  170.7433 N.3     1  UNL1       -0.2974
     29 C         140.2001  140.0929  170.7087 C.3     1  UNL1        0.0689
     30 C         139.5290  140.3653  169.3952 C.3     1  UNL1        0.0215
     31 H         142.1316  140.3784  171.3100 H       1  UNL1        0.1232
     32 C         138.7863  144.7103  165.0087 C.3     1  UNL1        0.2525
     33 O         139.1740  143.4888  164.2292 O.3     1  UNL1       -0.4702
@<TRIPOS>BOND
     1    32    33    1
     2    33    19    1
     3    19    20   ar
     4    20    21   ar
     5    21    25    1
     6    25    26    1
     7    26    27    1
     8    27    28    1
     9    28    29    1
    10    29    30    1
    11    21    22   ar
    12    22    23   ar
    13    23    24   ar
    14    24     1    1
    15     1     3    1
    16     3     4   ar
    17     4     5   ar
    18     5     6   ar
    19     6     7    1
    20     6     8   ar
    21     8    10    1
    22    10    11   ar
    23    11    12   ar
    24    12    13   ar
    25    13    14   ar
    26    14    15   ar
    27    15    16   ar
    28    16    17   ar
    29    17    18   ar
    30     8     9   ar
    31    24    19   ar
    32     9     3   ar
    33    30    25    1
    34    18    10   ar
    35    18    13   ar
    36    28    31    1
    37     1     2    1
@<TRIPOS>MOLECULE
*****
 33 37 0 0 0
SMALL
GASTEIGER

@<TRIPOS>ATOM
      1 N         137.4295  138.9750  161.7604 N.pl3   1  UNL1       -0.2802
      2 H         136.5815  138.4751  161.7481 H       1  UNL1        0.1552
      3 C         138.1402  139.2778  160.4746 C.ar    1  UNL1        0.2208
      4 N         139.4951  138.6909  160.2103 N.ar    1  UNL1       -0.2111
      5 C         140.2057  138.9938  158.9245 C.ar    1  UNL1        0.1147
      6 C         139.5615  139.8835  157.9030 C.ar    1  UNL1        0.0960
      7 CL        140.2722  140.1863  156.6173 Cl      1  UNL1       -0.0790
      8 C         138.2066  140.4704  158.1674 C.ar    1  UNL1        0.1138
      9 N         137.4960  140.1676  159.4531 N.ar    1  UNL1       -0.2111
     10 C         137.5624  141.3602  157.1459 C.ar    1  UNL1        0.1031
     11 C         136.3054  141.0616  156.3838 C.ar    1  UNL1        0.1196
     12 N         136.0283  142.2216  155.4741 N.ar    1  UNL1       -0.2248
     13 C         137.1140  143.2371  155.6739 C.ar    1  UNL1        0.1479
     14 C         137.3618  144.5777  155.0485 C.ar    1  UNL1        0.0374
     15 C         138.5578  145.3860  155.4563 C.ar    1  UNL1        0.0046
     16 C         139.5059  144.8536  156.4896 C.ar    1  UNL1        0.0191
     17 C         139.2581  143.5129  157.1150 C.ar    1  UNL1        0.0815
     18 N         138.0622  142.7047  156.7071 N.ar    1  UNL1       -0.2874
     19 C         137.8730  140.8672  163.4846 C.ar    1  UNL1        0.1517
     20 C         138.4545  141.3259  164.7891 C.ar    1  UNL1        0.0339
     21 C         139.1738  140.3512  165.6737 C.ar    1  UNL1       -0.0193
     22 C         139.3116  138.9178  165.2539 C.ar    1  UNL1       -0.0028
     23 C         138.7302  138.4591  163.9494 C.ar    1  UNL1        0.0174
     24 C         138.0109  139.4338  163.0647 C.ar    1  UNL1        0.0849
     25 C         139.7551  140.8100  166.9781 C.3     1  UNL1        0.0252
     26 C         139.6893  139.9191  168.1831 C.3     1  UNL1        0.0215
     27 C         140.2707  140.3779  169.4876 C.3     1  UNL1        0.0689
     28 N         140.9178  141.7274  169.5870 N.3     1  UNL1       -0.2974
     29 C         140.9836  142.6182  168.3820 C.3     1  UNL1        0.0689
     30 C         140.4023  142.1595  167.0775 C.3     1  UNL1        0.0215
     31 H         141.8790  141.5714  169.8906 H       1  UNL1        0.1232
     32 C         137.9293  142.8685  161.8287 C.3     1  UNL1        0.2525
     33 O         137.1538  141.8420  162.5999 O.3     1  UNL1       -0.4702
@<TRIPOS>BOND
     1    32    33    1
     2    33    19    1
     3    19    20   ar
     4    20    21   ar
     5    21    25    1
     6    25    26    1
     7    26    27    1
     8    27    28    1
     9    28    29    1
    10    29    30    1
    11    21    22   ar
    12    22    23   ar
    13    23    24   ar
    14    24     1    1
    15     1     3    1
    16     3     4   ar
    17     4     5   ar
    18     5     6   ar
    19     6     7    1
    20     6     8   ar
    21     8    10    1
    22    10    11   ar
    23    11    12   ar
    24    12    13   ar
    25    13    14   ar
    26    14    15   ar
    27    15    16   ar
    28    16    17   ar
    29    17    18   ar
    30     8     9   ar
    31    24    19   ar
    32     9     3   ar
    33    30    25    1
    34    18    10   ar
    35    18    13   ar
    36    28    31    1
    37     1     2    1
@<TRIPOS>MOLECULE
*****
 33 37 0 0 0
SMALL
GASTEIGER

@<TRIPOS>ATOM
      1 N         140.0331  137.8182  164.1556 N.pl3   1  UNL1       -0.2802
      2 H         140.1607  136.8420  164.1574 H       1  UNL1        0.1552
      3 C         139.4448  138.4954  162.9534 C.ar    1  UNL1        0.2208
      4 N         138.2477  137.9037  162.2702 N.ar    1  UNL1       -0.2111
      5 C         137.6593  138.5809  161.0680 C.ar    1  UNL1        0.1147
      6 C         138.2680  139.8499  160.5492 C.ar    1  UNL1        0.0960
      7 CL        137.6796  140.5272  159.3470 Cl      1  UNL1       -0.0790
      8 C         139.4651  140.4417  161.2325 C.ar    1  UNL1        0.1138
      9 N         140.0534  139.7644  162.4346 N.ar    1  UNL1       -0.2111
     10 C         140.0738  141.7106  160.7136 C.ar    1  UNL1        0.1031
     11 C         141.0337  141.8233  159.5664 C.ar    1  UNL1        0.1196
     12 N         141.3826  143.2720  159.3947 N.ar    1  UNL1       -0.2248
     13 C         140.6384  144.0547  160.4357 C.ar    1  UNL1        0.1479
     14 C         140.5927  145.5213  160.7467 C.ar    1  UNL1        0.0374
     15 C         139.7383  146.0230  161.8728 C.ar    1  UNL1        0.0046
     16 C         138.9294  145.0580  162.6879 C.ar    1  UNL1        0.0191
     17 C         138.9750  143.5913  162.3769 C.ar    1  UNL1        0.0815
     18 N         139.8295  143.0896  161.2508 N.ar    1  UNL1       -0.2874
     19 C         141.8773  138.8664  165.6557 C.ar    1  UNL1        0.1517
     20 C         142.2713  139.6765  166.8552 C.ar    1  UNL1        0.0339
     21 C         141.2151  140.2483  167.7538 C.ar    1  UNL1       -0.0193
     22 C         139.7650  140.0101  167.4531 C.ar    1  UNL1       -0.0028
     23 C         139.3711  139.2001  166.2537 C.ar    1  UNL1        0.0174
     24 C         140.4272  138.6282  165.3549 C.ar    1  UNL1        0.0849
     25 C         141.6092  141.0584  168.9532 C.3     1  UNL1        0.0252
     26 C         142.8673  141.8746  168.9264 C.3     1  UNL1        0.0215
     27 C         143.2615  142.6847  170.1259 C.3     1  UNL1        0.0689
     28 N         142.3974  142.6785  171.3519 N.3     1  UNL1       -0.2974
     29 C         141.1392  141.8622  171.3786 C.3     1  UNL1        0.0689
     30 C         140.7451  141.0522  170.1793 C.3     1  UNL1        0.0215
     31 H         142.1244  143.6460  171.5246 H       1  UNL1        0.1232
     32 C         144.0485  139.1665  164.2609 C.3     1  UNL1        0.2525
     33 O         142.9334  138.2946  164.7570 O.3     1  UNL1       -0.4702
@<TRIPOS>BOND
     1    32    33    1
     2    33    19    1
     3    19    20   ar
     4    20    21   ar
     5    21    25    1
     6    25    26    1
     7    26    27    1
     8    27    28    1
     9    28    29    1
    10    29    30    1
    11    21    22   ar
    12    22    23   ar
    13    23    24   ar
    14    24     1    1
    15     1     3    1
    16     3     4   ar
    17     4     5   ar
    18     5     6   ar
    19     6     7    1
    20     6     8   ar
    21     8    10    1
    22    10    11   ar
    23    11    12   ar
    24    12    13   ar
    25    13    14   ar
    26    14    15   ar
    27    15    16   ar
    28    16    17   ar
    29    17    18   ar
    30     8     9   ar
    31    24    19   ar
    32     9     3   ar
    33    30    25    1
    34    18    10   ar
    35    18    13   ar
    36    28    31    1
    37     1     2    1
