@<TRIPOS>MOLECULE
*****
 20 22 0 0 0
SMALL
GASTEIGER

@<TRIPOS>ATOM
      1 C         138.3879  139.2212  166.2222 C.2     1  UNL1        0.1818
      2 O         137.3168  138.4513  166.9361 O.2     1  UNL1       -0.2903
      3 C         139.3196  140.1050  166.9974 C.2     1  UNL1        0.0183
      4 C         140.1664  141.1142  166.2804 C.2     1  UNL1        0.0005
      5 C         141.0981  141.9980  167.0556 C.2     1  UNL1        0.0186
      6 C         141.1829  141.8725  168.5479 C.2     1  UNL1        0.0777
      7 N         142.0027  142.6008  169.5714 N.2     1  UNL1       -0.2442
      8 C         141.6625  142.0416  170.9210 C.2     1  UNL1        0.0985
      9 C         140.6324  140.9678  170.7317 C.2     1  UNL1        0.0182
     10 C         140.3360  140.8633  169.2650 C.2     1  UNL1        0.0015
     11 C         139.4043  139.9795  168.4897 C.3     1  UNL1        0.0571
     12 C         138.5274  139.1075  164.7331 C.3     1  UNL1        0.0977
     13 C         138.8226  138.7301  163.3115 C.3     1  UNL1        0.0233
     14 C         138.2313  139.7819  162.4205 C.3     1  UNL1        0.0189
     15 C         137.5707  140.8092  163.2911 C.3     1  UNL1        0.0689
     16 N         137.7537  140.3925  164.7204 N.3     1  UNL1       -0.2938
     17 H         136.8436  140.2529  165.1595 H       1  UNL1        0.1235
     18 C         139.2720  137.8463  165.0570 C.3     1  UNL1        0.0219
     19 C         141.8643  138.0028  165.1303 C.3     1  UNL1        0.0001
     20 C         140.6077  137.5813  164.4280 C.3     1  UNL1        0.0018
@<TRIPOS>BOND
     1    19    20    1
     2    20    18    1
     3    18    12    1
     4    12     1    1
     5     1     2    2
     6     1     3    1
     7     3     4    2
     8     4     5    1
     9     5     6    2
    10     6     7    1
    11     7     8    2
    12     8     9    1
    13     9    10    2
    14    10    11    1
    15    12    13    1
    16    13    14    1
    17    14    15    1
    18    15    16    1
    19    16    12    1
    20    11     3    1
    21    10     6    1
    22    16    17    1
@<TRIPOS>MOLECULE
*****
 20 22 0 0 0
SMALL
GASTEIGER

@<TRIPOS>ATOM
      1 C         140.2267  140.3261  169.0305 C.2     1  UNL1        0.1818
      2 O         139.4766  139.8089  170.2220 O.2     1  UNL1       -0.2903
      3 C         139.5770  140.3290  167.6784 C.2     1  UNL1        0.0183
      4 C         138.6595  139.2096  167.2849 C.2     1  UNL1        0.0005
      5 C         138.0097  139.2126  165.9328 C.2     1  UNL1        0.0186
      6 C         138.2776  140.3350  164.9745 C.2     1  UNL1        0.0777
      7 N         137.7844  140.6069  163.5842 N.2     1  UNL1       -0.2442
      8 C         138.3972  141.8945  163.1187 C.2     1  UNL1        0.0985
      9 C         139.2691  142.4182  164.2211 C.2     1  UNL1        0.0182
     10 C         139.1952  141.4544  165.3681 C.2     1  UNL1        0.0015
     11 C         139.8449  141.4514  166.7201 C.3     1  UNL1        0.0571
     12 C         141.6267  140.8404  169.1908 C.3     1  UNL1        0.0977
     13 C         143.1076  141.0755  169.2337 C.3     1  UNL1        0.0233
     14 C         143.3429  142.4488  169.7890 C.3     1  UNL1        0.0189
     15 C         142.0076  143.0625  170.0894 C.3     1  UNL1        0.0689
     16 N         140.9469  142.0684  169.7198 N.3     1  UNL1       -0.2938
     17 H         140.3377  142.4627  169.0030 H       1  UNL1        0.1235
     18 C         142.0138  139.5048  168.6284 C.3     1  UNL1        0.0219
     19 C         142.5198  138.8218  166.1733 C.3     1  UNL1        0.0001
     20 C         142.9659  139.4254  167.4721 C.3     1  UNL1        0.0018
@<TRIPOS>BOND
     1    19    20    1
     2    20    18    1
     3    18    12    1
     4    12     1    1
     5     1     2    2
     6     1     3    1
     7     3     4    2
     8     4     5    1
     9     5     6    2
    10     6     7    1
    11     7     8    2
    12     8     9    1
    13     9    10    2
    14    10    11    1
    15    12    13    1
    16    13    14    1
    17    14    15    1
    18    15    16    1
    19    16    12    1
    20    11     3    1
    21    10     6    1
    22    16    17    1
@<TRIPOS>MOLECULE
*****
 20 22 0 0 0
SMALL
GASTEIGER

@<TRIPOS>ATOM
      1 C         141.3111  141.9044  164.7612 C.2     1  UNL1        0.1818
      2 O         141.3178  140.7616  163.7897 O.2     1  UNL1       -0.2903
      3 C         140.8154  141.6956  166.1615 C.2     1  UNL1        0.0183
      4 C         140.1931  140.3872  166.5495 C.2     1  UNL1        0.0005
      5 C         139.6975  140.1783  167.9499 C.2     1  UNL1        0.0186
      6 C         139.8242  141.2780  168.9621 C.2     1  UNL1        0.0777
      7 N         139.4293  141.3629  170.4067 N.2     1  UNL1       -0.2442
      8 C         139.8077  142.7238  170.9114 C.2     1  UNL1        0.0985
      9 C         140.4363  143.4800  169.7788 C.2     1  UNL1        0.0182
     10 C         140.4466  142.5865  168.5740 C.2     1  UNL1        0.0015
     11 C         140.9422  142.7953  167.1737 C.3     1  UNL1        0.0571
     12 C         141.7999  143.2561  164.3325 C.3     1  UNL1        0.0977
     13 C         141.9886  144.6559  163.8272 C.3     1  UNL1        0.0233
     14 C         143.4393  145.0089  163.9708 C.3     1  UNL1        0.0189
     15 C         144.1473  143.8274  164.5647 C.3     1  UNL1        0.0689
     16 N         143.1342  142.7441  164.7882 N.3     1  UNL1       -0.2938
     17 H         143.0938  142.5072  165.7795 H       1  UNL1        0.1235
     18 C         140.3635  143.4856  163.9664 C.3     1  UNL1        0.0219
     19 C         138.5780  144.8096  165.3114 C.3     1  UNL1        0.0001
     20 C         139.6989  144.7844  164.3149 C.3     1  UNL1        0.0018
@<TRIPOS>BOND
     1    19    20    1
     2    20    18    1
     3    18    12    1
     4    12     1    1
     5     1     2    2
     6     1     3    1
     7     3     4    2
     8     4     5    1
     9     5     6    2
    10     6     7    1
    11     7     8    2
    12     8     9    1
    13     9    10    2
    14    10    11    1
    15    12    13    1
    16    13    14    1
    17    14    15    1
    18    15    16    1
    19    16    12    1
    20    11     3    1
    21    10     6    1
    22    16    17    1
@<TRIPOS>MOLECULE
*****
 20 22 0 0 0
SMALL
GASTEIGER

@<TRIPOS>ATOM
      1 C         141.0244  141.6662  166.4975 C.2     1  UNL1        0.1818
      2 O         142.3466  141.0370  166.1725 O.2     1  UNL1       -0.2903
      3 C         140.3245  142.5116  165.4749 C.2     1  UNL1        0.0183
      4 C         138.8561  142.3295  165.2292 C.2     1  UNL1        0.0005
      5 C         138.1562  143.1748  164.2066 C.2     1  UNL1        0.0186
      6 C         138.9248  144.2022  163.4298 C.2     1  UNL1        0.0777
      7 N         138.5088  145.1742  162.3658 N.2     1  UNL1       -0.2442
      8 C         139.7202  145.9571  161.9539 C.2     1  UNL1        0.0985
      9 C         140.8849  145.4689  162.7633 C.2     1  UNL1        0.0182
     10 C         140.3933  144.3843  163.6754 C.2     1  UNL1        0.0015
     11 C         141.0932  143.5389  164.6980 C.3     1  UNL1        0.0571
     12 C         140.4019  141.4502  167.8450 C.3     1  UNL1        0.0977
     13 C         139.7189  140.9471  169.0822 C.3     1  UNL1        0.0233
     14 C         139.7167  142.0548  170.0934 C.3     1  UNL1        0.0189
     15 C         140.3983  143.2426  169.4814 C.3     1  UNL1        0.0689
     16 N         140.8218  142.8689  168.0918 N.3     1  UNL1       -0.2938
     17 H         141.8349  142.9502  168.0051 H       1  UNL1        0.1235
     18 C         140.1122  140.0766  167.3165 C.3     1  UNL1        0.0219
     19 C         138.0052  138.8452  166.4251 C.3     1  UNL1        0.0001
     20 C         138.7749  139.4441  167.5648 C.3     1  UNL1        0.0018
@<TRIPOS>BOND
     1    19    20    1
     2    20    18    1
     3    18    12    1
     4    12     1    1
     5     1     2    2
     6     1     3    1
     7     3     4    2
     8     4     5    1
     9     5     6    2
    10     6     7    1
    11     7     8    2
    12     8     9    1
    13     9    10    2
    14    10    11    1
    15    12    13    1
    16    13    14    1
    17    14    15    1
    18    15    16    1
    19    16    12    1
    20    11     3    1
    21    10     6    1
    22    16    17    1
@<TRIPOS>MOLECULE
*****
 20 22 0 0 0
SMALL
GASTEIGER

@<TRIPOS>ATOM
      1 C         139.2903  139.9025  166.5855 C.2     1  UNL1        0.1818
      2 O         138.2379  139.0840  167.2727 O.2     1  UNL1       -0.2903
      3 C         138.9079  140.8385  165.4774 C.2     1  UNL1        0.0183
      4 C         137.9897  140.3735  164.3863 C.2     1  UNL1        0.0005
      5 C         137.6072  141.3094  163.2782 C.2     1  UNL1        0.0186
      6 C         138.1430  142.7104  163.2613 C.2     1  UNL1        0.0777
      7 N         137.9434  143.8498  162.3065 N.2     1  UNL1       -0.2442
      8 C         138.7383  145.0190  162.8075 C.2     1  UNL1        0.0985
      9 C         139.4291  144.6022  164.0721 C.2     1  UNL1        0.0182
     10 C         139.0612  143.1754  164.3525 C.2     1  UNL1        0.0015
     11 C         139.4436  142.2394  165.4606 C.3     1  UNL1        0.0571
     12 C         140.7253  139.7853  167.0064 C.3     1  UNL1        0.0977
     13 C         142.0661  139.8321  167.6773 C.3     1  UNL1        0.0233
     14 C         143.0453  139.1008  166.8077 C.3     1  UNL1        0.0189
     15 C         142.3098  138.6021  165.5993 C.3     1  UNL1        0.0689
     16 N         140.8759  139.0251  165.7221 N.3     1  UNL1       -0.2938
     17 H         140.2723  138.2030  165.7336 H       1  UNL1        0.1235
     18 C         140.2747  140.5700  168.2027 C.3     1  UNL1        0.0219
     19 C         140.4956  143.0445  168.9630 C.3     1  UNL1        0.0001
     20 C         141.1151  141.7005  168.7181 C.3     1  UNL1        0.0018
@<TRIPOS>BOND
     1    19    20    1
     2    20    18    1
     3    18    12    1
     4    12     1    1
     5     1     2    2
     6     1     3    1
     7     3     4    2
     8     4     5    1
     9     5     6    2
    10     6     7    1
    11     7     8    2
    12     8     9    1
    13     9    10    2
    14    10    11    1
    15    12    13    1
    16    13    14    1
    17    14    15    1
    18    15    16    1
    19    16    12    1
    20    11     3    1
    21    10     6    1
    22    16    17    1
@<TRIPOS>MOLECULE
*****
 20 22 0 0 0
SMALL
GASTEIGER

@<TRIPOS>ATOM
      1 C         142.9949  139.4290  166.6745 C.2     1  UNL1        0.1818
      2 O         143.8026  138.2227  167.0514 O.2     1  UNL1       -0.2903
      3 C         143.4630  140.3302  165.5704 C.2     1  UNL1        0.0183
      4 C         144.3222  139.7833  164.4693 C.2     1  UNL1        0.0005
      5 C         144.7904  140.6845  163.3653 C.2     1  UNL1        0.0186
      6 C         144.3993  142.1326  163.3626 C.2     1  UNL1        0.0777
      7 N         144.7072  143.2535  162.4146 N.2     1  UNL1       -0.2442
      8 C         144.0382  144.4933  162.9300 C.2     1  UNL1        0.0985
      9 C         143.3169  144.1385  164.1964 C.2     1  UNL1        0.0182
     10 C         143.5401  142.6795  164.4638 C.2     1  UNL1        0.0015
     11 C         143.0720  141.7783  165.5677 C.3     1  UNL1        0.0571
     12 C         141.7188  139.7343  167.4014 C.3     1  UNL1        0.0977
     13 C         140.6342  140.1199  168.3633 C.3     1  UNL1        0.0233
     14 C         139.3145  139.9100  167.6821 C.3     1  UNL1        0.0189
     15 C         139.5833  139.3947  166.2993 C.3     1  UNL1        0.0689
     16 N         141.0692  139.2861  166.1258 N.3     1  UNL1       -0.2938
     17 H         141.3722  139.8817  165.3552 H       1  UNL1        0.1235
     18 C         142.6351  140.1187  168.5251 C.3     1  UNL1        0.0219
     19 C         143.7068  142.1901  169.6699 C.3     1  UNL1        0.0001
     20 C         142.4906  141.4573  169.1862 C.3     1  UNL1        0.0018
@<TRIPOS>BOND
     1    19    20    1
     2    20    18    1
     3    18    12    1
     4    12     1    1
     5     1     2    2
     6     1     3    1
     7     3     4    2
     8     4     5    1
     9     5     6    2
    10     6     7    1
    11     7     8    2
    12     8     9    1
    13     9    10    2
    14    10    11    1
    15    12    13    1
    16    13    14    1
    17    14    15    1
    18    15    16    1
    19    16    12    1
    20    11     3    1
    21    10     6    1
    22    16    17    1
@<TRIPOS>MOLECULE
*****
 20 22 0 0 0
SMALL
GASTEIGER

@<TRIPOS>ATOM
      1 C         138.4674  139.1427  166.1380 C.2     1  UNL1        0.1818
      2 O         137.3208  138.4268  166.7881 O.2     1  UNL1       -0.2903
      3 C         139.6405  139.5838  166.9623 C.2     1  UNL1        0.0183
      4 C         141.0167  139.5893  166.3657 C.2     1  UNL1        0.0005
      5 C         142.1898  140.0304  167.1900 C.2     1  UNL1        0.0186
      6 C         141.9865  140.4662  168.6108 C.2     1  UNL1        0.0777
      7 N         142.9443  140.9494  169.6592 N.2     1  UNL1       -0.2442
      8 C         142.1600  141.2425  170.9037 C.2     1  UNL1        0.0985
      9 C         140.7175  140.9406  170.6245 C.2     1  UNL1        0.0182
     10 C         140.6103  140.4607  169.2074 C.2     1  UNL1        0.0015
     11 C         139.4373  140.0196  168.3831 C.3     1  UNL1        0.0571
     12 C         138.4411  139.4175  164.6636 C.3     1  UNL1        0.0977
     13 C         138.3450  139.9847  163.2783 C.3     1  UNL1        0.0233
     14 C         138.6245  138.8788  162.3043 C.3     1  UNL1        0.0189
     15 C         138.8933  137.6282  163.0875 C.3     1  UNL1        0.0689
     16 N         138.7799  137.9610  164.5457 N.3     1  UNL1       -0.2938
     17 H         139.6665  137.7729  165.0136 H       1  UNL1        0.1235
     18 C         138.1077  140.8165  165.0898 C.3     1  UNL1        0.0219
     19 C         138.3652  143.3642  164.6507 C.3     1  UNL1        0.0001
     20 C         138.2994  141.9572  164.1348 C.3     1  UNL1        0.0018
@<TRIPOS>BOND
     1    19    20    1
     2    20    18    1
     3    18    12    1
     4    12     1    1
     5     1     2    2
     6     1     3    1
     7     3     4    2
     8     4     5    1
     9     5     6    2
    10     6     7    1
    11     7     8    2
    12     8     9    1
    13     9    10    2
    14    10    11    1
    15    12    13    1
    16    13    14    1
    17    14    15    1
    18    15    16    1
    19    16    12    1
    20    11     3    1
    21    10     6    1
    22    16    17    1
@<TRIPOS>MOLECULE
*****
 20 22 0 0 0
SMALL
GASTEIGER

@<TRIPOS>ATOM
      1 C         142.4711  140.2408  167.8615 C.2     1  UNL1        0.1818
      2 O         142.8035  139.1193  168.8005 O.2     1  UNL1       -0.2903
      3 C         143.0982  140.2896  166.4997 C.2     1  UNL1        0.0183
      4 C         143.3654  139.0176  165.7510 C.2     1  UNL1        0.0005
      5 C         143.9925  139.0664  164.3892 C.2     1  UNL1        0.0186
      6 C         144.3523  140.3873  163.7762 C.2     1  UNL1        0.0777
      7 N         144.9768  140.7462  162.4604 N.2     1  UNL1       -0.2442
      8 C         145.0956  142.2401  162.3960 C.2     1  UNL1        0.0985
      9 C         144.5445  142.8044  163.6719 C.2     1  UNL1        0.0182
     10 C         144.0852  141.6593  164.5249 C.2     1  UNL1        0.0015
     11 C         143.4581  141.6104  165.8867 C.3     1  UNL1        0.0571
     12 C         141.5117  141.3135  168.2842 C.3     1  UNL1        0.0977
     13 C         140.3582  142.2469  168.5040 C.3     1  UNL1        0.0233
     14 C         140.7745  143.2666  169.5221 C.3     1  UNL1        0.0189
     15 C         142.1853  142.9636  169.9316 C.3     1  UNL1        0.0689
     16 N         142.6410  141.7565  169.1666 N.3     1  UNL1       -0.2938
     17 H         142.8877  141.0086  169.8148 H       1  UNL1        0.1235
     18 C         140.5830  140.6463  167.3134 C.3     1  UNL1        0.0219
     19 C         138.5180  139.1366  166.8593 C.3     1  UNL1        0.0001
     20 C         139.3731  139.9150  167.8147 C.3     1  UNL1        0.0018
@<TRIPOS>BOND
     1    19    20    1
     2    20    18    1
     3    18    12    1
     4    12     1    1
     5     1     2    2
     6     1     3    1
     7     3     4    2
     8     4     5    1
     9     5     6    2
    10     6     7    1
    11     7     8    2
    12     8     9    1
    13     9    10    2
    14    10    11    1
    15    12    13    1
    16    13    14    1
    17    14    15    1
    18    15    16    1
    19    16    12    1
    20    11     3    1
    21    10     6    1
    22    16    17    1
@<TRIPOS>MOLECULE
*****
 20 22 0 0 0
SMALL
GASTEIGER

@<TRIPOS>ATOM
      1 C         139.9938  140.0500  167.7310 C.2     1  UNL1        0.1818
      2 O         138.9579  139.6563  168.7417 O.2     1  UNL1       -0.2903
      3 C         140.0340  139.3704  166.3943 C.2     1  UNL1        0.0183
      4 C         138.7865  138.7641  165.8234 C.2     1  UNL1        0.0005
      5 C         138.8266  138.0845  164.4867 C.2     1  UNL1        0.0186
      6 C         140.1144  138.0113  163.7211 C.2     1  UNL1        0.0777
      7 N         140.4581  137.4105  162.3903 N.2     1  UNL1       -0.2442
      8 C         141.9180  137.6456  162.1388 C.2     1  UNL1        0.0985
      9 C         142.4767  138.3916  163.3141 C.2     1  UNL1        0.0182
     10 C         141.3620  138.6176  164.2920 C.2     1  UNL1        0.0015
     11 C         141.3218  139.2971  165.6287 C.3     1  UNL1        0.0571
     12 C         140.9897  141.1233  168.0568 C.3     1  UNL1        0.0977
     13 C         141.8010  142.3764  168.2040 C.3     1  UNL1        0.0233
     14 C         142.9775  142.0665  169.0814 C.3     1  UNL1        0.0189
     15 C         142.8933  140.6219  169.4764 C.3     1  UNL1        0.0689
     16 N         141.6648  140.0390  168.8433 N.3     1  UNL1       -0.2938
     17 H         141.0344  139.6918  169.5660 H       1  UNL1        0.1235
     18 C         140.1064  141.9833  167.2023 C.3     1  UNL1        0.0219
     19 C         139.8390  143.6869  165.2590 C.3     1  UNL1        0.0001
     20 C         140.7146  142.9449  166.2249 C.3     1  UNL1        0.0018
@<TRIPOS>BOND
     1    19    20    1
     2    20    18    1
     3    18    12    1
     4    12     1    1
     5     1     2    2
     6     1     3    1
     7     3     4    2
     8     4     5    1
     9     5     6    2
    10     6     7    1
    11     7     8    2
    12     8     9    1
    13     9    10    2
    14    10    11    1
    15    12    13    1
    16    13    14    1
    17    14    15    1
    18    15    16    1
    19    16    12    1
    20    11     3    1
    21    10     6    1
    22    16    17    1
