@<TRIPOS>MOLECULE
*****
 35 38 0 0 0
SMALL
GASTEIGER

@<TRIPOS>ATOM
      1 C         141.6243  139.2463  161.6923 C.ar    1  UNL1        0.0674
      2 C         141.3954  137.7672  161.7901 C.ar    1  UNL1        0.1133
      3 N         140.5280  137.2130  162.8812 N.ar    1  UNL1       -0.2425
      4 C         139.8894  138.1381  163.8744 C.ar    1  UNL1        0.0825
      5 C         139.0220  137.5839  164.9655 C.ar    1  UNL1        0.0230
      6 C         138.3834  138.5089  165.9588 C.ar    1  UNL1        0.0741
      7 C         138.6123  139.9882  165.8609 C.ar    1  UNL1        0.0183
      8 C         139.4797  140.5423  164.7698 C.ar    1  UNL1        0.0463
      9 C         140.1183  139.6172  163.7766 C.ar    1  UNL1        0.0320
     10 C         140.9857  140.1714  162.6855 C.ar    1  UNL1        0.0188
     11 C         145.1450  140.7831  155.9920 C.3     1  UNL1        0.0948
     12 C         145.0940  141.4632  157.3280 C.2     1  UNL1        0.2262
     13 O         145.9104  142.6975  157.5729 O.2     1  UNL1       -0.2749
     14 N         144.2266  140.9090  158.4190 N.am    1  UNL1       -0.2760
     15 C         143.4102  139.6747  158.1740 C.3     1  UNL1        0.1148
     16 C         142.5427  139.1205  159.2652 C.3     1  UNL1        0.1124
     17 N         142.4917  139.8005  160.6011 N.pl3   1  UNL1       -0.3028
     18 C         143.3081  141.0348  160.8461 C.3     1  UNL1        0.1124
     19 C         144.1755  141.5890  159.7550 C.3     1  UNL1        0.1148
     20 C         137.5160  137.9548  167.0498 C.3     1  UNL1        0.4187
     21 F         136.6486  137.4007  168.1410 F       1  UNL1       -0.1659
     22 F         137.5199  139.2909  167.7315 F       1  UNL1       -0.1659
     23 F         137.5121  136.6187  166.3682 F       1  UNL1       -0.1659
     24 N         139.7086  142.0215  164.6720 N.pl3   1  UNL1       -0.3290
     25 H         139.1351  142.5709  164.0901 H       1  UNL1        0.1471
     26 C         140.8111  142.6636  165.4607 C.3     1  UNL1        0.1145
     27 C         141.1951  142.1101  166.8009 C.ar    1  UNL1        0.0035
     28 C         142.1518  140.9583  166.8905 C.ar    1  UNL1       -0.0022
     29 C         142.5358  140.4048  168.2307 C.ar    1  UNL1        0.0060
     30 C         141.9631  141.0031  169.4814 C.ar    1  UNL1        0.0752
     31 C         141.0064  142.1550  169.3918 C.ar    1  UNL1        0.2898
     32 C         140.6224  142.7085  168.0515 C.ar    1  UNL1        0.0727
     33 N         140.4337  142.7533  170.6424 N.pl3   1  UNL1        0.0809
     34 O         139.6966  144.0582  170.5801 O.2     1  UNL1        0.0415
     35 O         140.5982  142.0468  171.9552 O.co2   1  UNL1       -0.5760
@<TRIPOS>UNITY_ATOM_ATTR
33 1
charge 1
35 1
charge -1
@<TRIPOS>BOND
     1    11    12    1
     2    12    13    2
     3    12    14   am
     4    14    15    1
     5    15    16    1
     6    16    17    1
     7    17     1    1
     8     1     2   ar
     9     2     3   ar
    10     3     4   ar
    11     4     5   ar
    12     5     6   ar
    13     6    20    1
    14    20    21    1
    15    20    22    1
    16    20    23    1
    17     6     7   ar
    18     7     8   ar
    19     8    24    1
    20    24    26    1
    21    26    27    1
    22    27    28   ar
    23    28    29   ar
    24    29    30   ar
    25    30    31   ar
    26    31    33    1
    27    33    34    2
    28    33    35    1
    29    31    32   ar
    30     8     9   ar
    31     9    10   ar
    32    17    18    1
    33    18    19    1
    34    19    14    1
    35    10     1   ar
    36     9     4   ar
    37    32    27   ar
    38    24    25    1
@<TRIPOS>MOLECULE
*****
 35 38 0 0 0
SMALL
GASTEIGER

@<TRIPOS>ATOM
      1 C         141.7208  139.1359  161.6027 C.ar    1  UNL1        0.0674
      2 C         141.8504  137.6966  162.0045 C.ar    1  UNL1        0.1133
      3 N         141.0401  137.1612  163.1476 N.ar    1  UNL1       -0.2425
      4 C         140.1000  138.0652  163.8887 C.ar    1  UNL1        0.0825
      5 C         139.2896  137.5297  165.0318 C.ar    1  UNL1        0.0230
      6 C         138.3496  138.4336  165.7730 C.ar    1  UNL1        0.0741
      7 C         138.2200  139.8730  165.3710 C.ar    1  UNL1        0.0183
      8 C         139.0304  140.4083  164.2280 C.ar    1  UNL1        0.0463
      9 C         139.9704  139.5044  163.4868 C.ar    1  UNL1        0.0320
     10 C         140.7808  140.0398  162.3438 C.ar    1  UNL1        0.0188
     11 C         144.9795  140.5515  155.7182 C.3     1  UNL1        0.0948
     12 C         144.9623  141.2778  157.0304 C.2     1  UNL1        0.2262
     13 O         145.7555  142.5397  157.1997 O.2     1  UNL1       -0.2749
     14 N         144.1520  140.7424  158.1734 N.am    1  UNL1       -0.2760
     15 C         143.3588  139.4805  158.0042 C.3     1  UNL1        0.1148
     16 C         142.5484  138.9451  159.1473 C.3     1  UNL1        0.1124
     17 N         142.5312  139.6714  160.4596 N.pl3   1  UNL1       -0.3028
     18 C         143.3244  140.9332  160.6288 C.3     1  UNL1        0.1124
     19 C         144.1348  141.4687  159.4858 C.3     1  UNL1        0.1148
     20 C         137.5392  137.8982  166.9160 C.3     1  UNL1        0.4187
     21 F         136.7288  137.3627  168.0591 F       1  UNL1       -0.1659
     22 F         137.6040  136.5240  166.3183 F       1  UNL1       -0.1659
     23 F         137.4745  139.2724  167.5138 F       1  UNL1       -0.1659
     24 N         138.9007  141.8476  163.8261 N.pl3   1  UNL1       -0.3290
     25 H         138.3785  142.0907  163.0276 H       1  UNL1        0.1471
     26 C         139.5666  142.9167  164.6408 C.3     1  UNL1        0.1145
     27 C         141.0204  142.7971  164.9904 C.ar    1  UNL1        0.0035
     28 C         141.4290  142.4600  166.3938 C.ar    1  UNL1       -0.0022
     29 C         142.8827  142.3403  166.7434 C.ar    1  UNL1        0.0060
     30 C         143.9280  142.5578  165.6897 C.ar    1  UNL1        0.0752
     31 C         143.5194  142.8949  164.2863 C.ar    1  UNL1        0.2898
     32 C         142.0656  143.0145  163.9367 C.ar    1  UNL1        0.0727
     33 N         144.5645  143.1123  163.2327 N.pl3   1  UNL1        0.0809
     34 O         145.6579  142.1033  163.0412 O.2     1  UNL1        0.0415
     35 O         144.5164  144.3387  162.3704 O.co2   1  UNL1       -0.5760
@<TRIPOS>UNITY_ATOM_ATTR
33 1
charge 1
35 1
charge -1
@<TRIPOS>BOND
     1    11    12    1
     2    12    13    2
     3    12    14   am
     4    14    15    1
     5    15    16    1
     6    16    17    1
     7    17     1    1
     8     1     2   ar
     9     2     3   ar
    10     3     4   ar
    11     4     5   ar
    12     5     6   ar
    13     6    20    1
    14    20    21    1
    15    20    22    1
    16    20    23    1
    17     6     7   ar
    18     7     8   ar
    19     8    24    1
    20    24    26    1
    21    26    27    1
    22    27    28   ar
    23    28    29   ar
    24    29    30   ar
    25    30    31   ar
    26    31    33    1
    27    33    34    2
    28    33    35    1
    29    31    32   ar
    30     8     9   ar
    31     9    10   ar
    32    17    18    1
    33    18    19    1
    34    19    14    1
    35    10     1   ar
    36     9     4   ar
    37    32    27   ar
    38    24    25    1
@<TRIPOS>MOLECULE
*****
 35 38 0 0 0
SMALL
GASTEIGER

@<TRIPOS>ATOM
      1 C         142.1576  143.7302  162.2541 C.ar    1  UNL1        0.0674
      2 C         143.5946  143.4048  162.5354 C.ar    1  UNL1        0.1133
      3 N         143.9946  142.8780  163.8816 N.ar    1  UNL1       -0.2425
      4 C         142.9577  142.6766  164.9466 C.ar    1  UNL1        0.0825
      5 C         143.3578  142.1497  166.2929 C.ar    1  UNL1        0.0230
      6 C         142.3208  141.9483  167.3579 C.ar    1  UNL1        0.0741
      7 C         140.8838  142.2738  167.0766 C.ar    1  UNL1        0.0183
      8 C         140.4838  142.8006  165.7303 C.ar    1  UNL1        0.0463
      9 C         141.5207  143.0020  164.6654 C.ar    1  UNL1        0.0320
     10 C         141.1207  143.5288  163.3191 C.ar    1  UNL1        0.0188
     11 C         141.2638  145.3583  155.6360 C.3     1  UNL1        0.0948
     12 C         140.5572  145.8377  156.8692 C.2     1  UNL1        0.2262
     13 O         139.4506  146.8440  156.7562 O.2     1  UNL1       -0.2749
     14 N         140.9574  145.3109  158.2154 N.am    1  UNL1       -0.2760
     15 C         142.0640  144.3046  158.3283 C.3     1  UNL1        0.1148
     16 C         142.4641  143.7777  159.6746 C.3     1  UNL1        0.1124
     17 N         141.7576  144.2571  160.9079 N.pl3   1  UNL1       -0.3028
     18 C         140.6509  145.2634  160.7949 C.3     1  UNL1        0.1124
     19 C         140.2508  145.7902  159.4487 C.3     1  UNL1        0.1148
     20 C         142.7209  141.4215  168.7041 C.3     1  UNL1        0.4187
     21 F         143.1209  140.8946  170.0504 F       1  UNL1       -0.1659
     22 F         143.8300  142.4292  168.7689 F       1  UNL1       -0.1659
     23 F         141.6118  140.4137  168.6393 F       1  UNL1       -0.1659
     24 N         139.0468  143.1261  165.4491 N.pl3   1  UNL1       -0.3290
     25 H         138.6499  143.9524  165.8080 H       1  UNL1        0.1471
     26 C         138.2145  142.1924  164.6210 C.3     1  UNL1        0.1145
     27 C         138.4726  140.7155  164.6682 C.ar    1  UNL1        0.0035
     28 C         138.1716  139.9411  165.9170 C.ar    1  UNL1       -0.0022
     29 C         138.4297  138.4642  165.9643 C.ar    1  UNL1        0.0060
     30 C         138.9888  137.7617  164.7626 C.ar    1  UNL1        0.0752
     31 C         139.2898  138.5362  163.5137 C.ar    1  UNL1        0.2898
     32 C         139.0317  140.0131  163.4665 C.ar    1  UNL1        0.0727
     33 N         139.8489  137.8338  162.3121 N.pl3   1  UNL1        0.0809
     34 O         139.1226  137.8966  161.0012 O.2     1  UNL1        0.0415
     35 O         141.1343  137.0685  162.4214 O.co2   1  UNL1       -0.5760
@<TRIPOS>UNITY_ATOM_ATTR
33 1
charge 1
35 1
charge -1
@<TRIPOS>BOND
     1    11    12    1
     2    12    13    2
     3    12    14   am
     4    14    15    1
     5    15    16    1
     6    16    17    1
     7    17     1    1
     8     1     2   ar
     9     2     3   ar
    10     3     4   ar
    11     4     5   ar
    12     5     6   ar
    13     6    20    1
    14    20    21    1
    15    20    22    1
    16    20    23    1
    17     6     7   ar
    18     7     8   ar
    19     8    24    1
    20    24    26    1
    21    26    27    1
    22    27    28   ar
    23    28    29   ar
    24    29    30   ar
    25    30    31   ar
    26    31    33    1
    27    33    34    2
    28    33    35    1
    29    31    32   ar
    30     8     9   ar
    31     9    10   ar
    32    17    18    1
    33    18    19    1
    34    19    14    1
    35    10     1   ar
    36     9     4   ar
    37    32    27   ar
    38    24    25    1
@<TRIPOS>MOLECULE
*****
 35 38 0 0 0
SMALL
GASTEIGER

@<TRIPOS>ATOM
      1 C         140.3512  138.5668  162.3515 C.ar    1  UNL1        0.0674
      2 C         139.1199  137.8318  162.7914 C.ar    1  UNL1        0.1133
      3 N         138.6121  137.9913  164.1937 N.ar    1  UNL1       -0.2425
      4 C         139.3355  138.8860  165.1561 C.ar    1  UNL1        0.0825
      5 C         138.8276  139.0455  166.5585 C.ar    1  UNL1        0.0230
      6 C         139.5510  139.9401  167.5209 C.ar    1  UNL1        0.0741
      7 C         140.7824  140.6752  167.0810 C.ar    1  UNL1        0.0183
      8 C         141.2903  140.5156  165.6786 C.ar    1  UNL1        0.0463
      9 C         140.5668  139.6210  164.7162 C.ar    1  UNL1        0.0320
     10 C         141.0747  139.4614  163.3139 C.ar    1  UNL1        0.0188
     11 C         141.4574  138.1395  155.5807 C.3     1  UNL1        0.0948
     12 C         142.3829  137.9286  156.7421 C.2     1  UNL1        0.2262
     13 O         143.8164  137.5581  156.5012 O.2     1  UNL1       -0.2749
     14 N         141.8750  138.0881  158.1444 N.am    1  UNL1       -0.2760
     15 C         140.4416  138.4586  158.3853 C.3     1  UNL1        0.1148
     16 C         139.9336  138.6181  159.7877 C.3     1  UNL1        0.1124
     17 N         140.8591  138.4072  160.9491 N.pl3   1  UNL1       -0.3028
     18 C         142.2926  138.0368  160.7082 C.3     1  UNL1        0.1124
     19 C         142.8005  137.8772  159.3059 C.3     1  UNL1        0.1148
     20 C         139.0432  140.0997  168.9233 C.3     1  UNL1        0.4187
     21 F         138.5353  140.2593  170.3257 F       1  UNL1       -0.1659
     22 F         137.8683  139.2261  168.5972 F       1  UNL1       -0.1659
     23 F         140.2181  140.9734  169.2493 F       1  UNL1       -0.1659
     24 N         142.5216  141.2507  165.2388 N.pl3   1  UNL1       -0.3290
     25 H         143.3157  140.7487  164.9444 H       1  UNL1        0.1471
     26 C         142.5430  142.7505  165.2474 C.3     1  UNL1        0.1145
     27 C         141.4330  143.5202  164.5949 C.ar    1  UNL1        0.0035
     28 C         140.1629  143.7877  165.3468 C.ar    1  UNL1       -0.0022
     29 C         139.0530  144.5573  164.6944 C.ar    1  UNL1        0.0060
     30 C         139.2131  145.0595  163.2900 C.ar    1  UNL1        0.0752
     31 C         140.4832  144.7920  162.5381 C.ar    1  UNL1        0.2898
     32 C         141.5932  144.0224  163.1906 C.ar    1  UNL1        0.0727
     33 N         140.6433  145.2942  161.1338 N.pl3   1  UNL1        0.0809
     34 O         141.8628  144.9281  160.3409 O.2     1  UNL1        0.0415
     35 O         139.5840  146.1625  160.5225 O.co2   1  UNL1       -0.5760
@<TRIPOS>UNITY_ATOM_ATTR
33 1
charge 1
35 1
charge -1
@<TRIPOS>BOND
     1    11    12    1
     2    12    13    2
     3    12    14   am
     4    14    15    1
     5    15    16    1
     6    16    17    1
     7    17     1    1
     8     1     2   ar
     9     2     3   ar
    10     3     4   ar
    11     4     5   ar
    12     5     6   ar
    13     6    20    1
    14    20    21    1
    15    20    22    1
    16    20    23    1
    17     6     7   ar
    18     7     8   ar
    19     8    24    1
    20    24    26    1
    21    26    27    1
    22    27    28   ar
    23    28    29   ar
    24    29    30   ar
    25    30    31   ar
    26    31    33    1
    27    33    34    2
    28    33    35    1
    29    31    32   ar
    30     8     9   ar
    31     9    10   ar
    32    17    18    1
    33    18    19    1
    34    19    14    1
    35    10     1   ar
    36     9     4   ar
    37    32    27   ar
    38    24    25    1
@<TRIPOS>MOLECULE
*****
 35 38 0 0 0
SMALL
GASTEIGER

@<TRIPOS>ATOM
      1 C         139.7060  142.3992  163.5629 C.ar    1  UNL1        0.0674
      2 C         140.4849  143.4630  164.2781 C.ar    1  UNL1        0.1133
      3 N         140.7544  143.3347  165.7481 N.ar    1  UNL1       -0.2425
      4 C         140.2451  142.1426  166.5028 C.ar    1  UNL1        0.0825
      5 C         140.5147  142.0144  167.9729 C.ar    1  UNL1        0.0230
      6 C         140.0053  140.8223  168.7276 C.ar    1  UNL1        0.0741
      7 C         139.2263  139.7586  168.0122 C.ar    1  UNL1        0.0183
      8 C         138.9567  139.8868  166.5423 C.ar    1  UNL1        0.0463
      9 C         139.4661  141.0789  165.7876 C.ar    1  UNL1        0.0320
     10 C         139.1966  141.2072  164.3176 C.ar    1  UNL1        0.0188
     11 C         137.7372  141.9208  156.9944 C.3     1  UNL1        0.0948
     12 C         138.6277  142.9123  157.6829 C.2     1  UNL1        0.2262
     13 O         139.2485  144.0320  156.9014 O.2     1  UNL1       -0.2749
     14 N         138.8972  142.7840  159.1528 N.am    1  UNL1       -0.2760
     15 C         138.2763  141.6642  159.9343 C.3     1  UNL1        0.1148
     16 C         138.5459  141.5360  161.4043 C.3     1  UNL1        0.1124
     17 N         139.4364  142.5275  162.0928 N.pl3   1  UNL1       -0.3028
     18 C         140.0572  143.6472  161.3114 C.3     1  UNL1        0.1124
     19 C         139.7877  143.7755  159.8414 C.3     1  UNL1        0.1148
     20 C         140.2748  140.6941  170.1975 C.3     1  UNL1        0.4187
     21 F         140.5444  140.5657  171.6676 F       1  UNL1       -0.1659
     22 F         140.9736  139.3890  169.9555 F       1  UNL1       -0.1659
     23 F         139.5761  141.9991  170.4395 F       1  UNL1       -0.1659
     24 N         138.1778  138.8231  165.8270 N.pl3   1  UNL1       -0.3290
     25 H         137.1982  138.8929  165.7577 H       1  UNL1        0.1471
     26 C         138.8913  137.6530  165.2173 C.3     1  UNL1        0.1145
     27 C         139.6039  137.8090  163.9066 C.ar    1  UNL1        0.0035
     28 C         138.8216  137.8447  162.6272 C.ar    1  UNL1       -0.0022
     29 C         139.5341  138.0007  161.3166 C.ar    1  UNL1        0.0060
     30 C         141.0290  138.1210  161.2852 C.ar    1  UNL1        0.0752
     31 C         141.8113  138.0853  162.5645 C.ar    1  UNL1        0.2898
     32 C         141.0987  137.9293  163.8753 C.ar    1  UNL1        0.0727
     33 N         143.3061  138.2056  162.5332 N.pl3   1  UNL1        0.0809
     34 O         144.0840  137.5974  161.4040 O.2     1  UNL1        0.0415
     35 O         144.0231  138.9341  163.6310 O.co2   1  UNL1       -0.5760
@<TRIPOS>UNITY_ATOM_ATTR
33 1
charge 1
35 1
charge -1
@<TRIPOS>BOND
     1    11    12    1
     2    12    13    2
     3    12    14   am
     4    14    15    1
     5    15    16    1
     6    16    17    1
     7    17     1    1
     8     1     2   ar
     9     2     3   ar
    10     3     4   ar
    11     4     5   ar
    12     5     6   ar
    13     6    20    1
    14    20    21    1
    15    20    22    1
    16    20    23    1
    17     6     7   ar
    18     7     8   ar
    19     8    24    1
    20    24    26    1
    21    26    27    1
    22    27    28   ar
    23    28    29   ar
    24    29    30   ar
    25    30    31   ar
    26    31    33    1
    27    33    34    2
    28    33    35    1
    29    31    32   ar
    30     8     9   ar
    31     9    10   ar
    32    17    18    1
    33    18    19    1
    34    19    14    1
    35    10     1   ar
    36     9     4   ar
    37    32    27   ar
    38    24    25    1
@<TRIPOS>MOLECULE
*****
 35 38 0 0 0
SMALL
GASTEIGER

@<TRIPOS>ATOM
      1 C         141.7092  139.4786  160.7613 C.ar    1  UNL1        0.0674
      2 C         140.5777  138.5619  160.4018 C.ar    1  UNL1        0.1133
      3 N         139.6181  138.1042  161.4599 N.ar    1  UNL1       -0.2425
      4 C         139.7899  138.5633  162.8775 C.ar    1  UNL1        0.0825
      5 C         138.8303  138.1056  163.9357 C.ar    1  UNL1        0.0230
      6 C         139.0021  138.5647  165.3533 C.ar    1  UNL1        0.0741
      7 C         140.1337  139.4815  165.7128 C.ar    1  UNL1        0.0183
      8 C         141.0933  139.9391  164.6547 C.ar    1  UNL1        0.0463
      9 C         140.9214  139.4800  163.2371 C.ar    1  UNL1        0.0320
     10 C         141.8810  139.9377  162.1789 C.ar    1  UNL1        0.0188
     11 C         145.6394  140.5682  155.2281 C.3     1  UNL1        0.0948
     12 C         145.5479  141.3094  156.5289 C.2     1  UNL1        0.2262
     13 O         146.4160  142.5083  156.7717 O.2     1  UNL1       -0.2749
     14 N         144.5882  140.8517  157.5870 N.am    1  UNL1       -0.2760
     15 C         143.7200  139.6528  157.3442 C.3     1  UNL1        0.1148
     16 C         142.7604  139.1951  158.4023 C.3     1  UNL1        0.1124
     17 N         142.6689  139.9363  159.7032 N.pl3   1  UNL1       -0.3028
     18 C         143.5370  141.1352  159.9459 C.3     1  UNL1        0.1124
     19 C         144.4967  141.5929  158.8879 C.3     1  UNL1        0.1148
     20 C         138.0425  138.1071  166.4114 C.3     1  UNL1        0.4187
     21 F         137.0828  137.6494  167.4696 F       1  UNL1       -0.1659
     22 F         138.0658  136.7229  165.8339 F       1  UNL1       -0.1659
     23 F         138.0192  139.4912  166.9889 F       1  UNL1       -0.1659
     24 N         142.2248  140.8558  165.0142 N.pl3   1  UNL1       -0.3290
     25 H         143.1557  140.5637  164.8829 H       1  UNL1        0.1471
     26 C         141.9379  142.2177  165.5738 C.3     1  UNL1        0.1145
     27 C         140.9367  143.1093  164.9010 C.ar    1  UNL1        0.0035
     28 C         139.6216  143.3944  165.5638 C.ar    1  UNL1       -0.0022
     29 C         138.6204  144.2860  164.8910 C.ar    1  UNL1        0.0060
     30 C         138.9342  144.8925  163.5554 C.ar    1  UNL1        0.0752
     31 C         140.2493  144.6074  162.8927 C.ar    1  UNL1        0.2898
     32 C         141.2506  143.7158  163.5655 C.ar    1  UNL1        0.0727
     33 N         140.5632  145.2139  161.5572 N.pl3   1  UNL1        0.0809
     34 O         141.8431  144.8648  160.8571 O.2     1  UNL1        0.0415
     35 O         139.5972  146.1694  160.9217 O.co2   1  UNL1       -0.5760
@<TRIPOS>UNITY_ATOM_ATTR
33 1
charge 1
35 1
charge -1
@<TRIPOS>BOND
     1    11    12    1
     2    12    13    2
     3    12    14   am
     4    14    15    1
     5    15    16    1
     6    16    17    1
     7    17     1    1
     8     1     2   ar
     9     2     3   ar
    10     3     4   ar
    11     4     5   ar
    12     5     6   ar
    13     6    20    1
    14    20    21    1
    15    20    22    1
    16    20    23    1
    17     6     7   ar
    18     7     8   ar
    19     8    24    1
    20    24    26    1
    21    26    27    1
    22    27    28   ar
    23    28    29   ar
    24    29    30   ar
    25    30    31   ar
    26    31    33    1
    27    33    34    2
    28    33    35    1
    29    31    32   ar
    30     8     9   ar
    31     9    10   ar
    32    17    18    1
    33    18    19    1
    34    19    14    1
    35    10     1   ar
    36     9     4   ar
    37    32    27   ar
    38    24    25    1
@<TRIPOS>MOLECULE
*****
 35 38 0 0 0
SMALL
GASTEIGER

@<TRIPOS>ATOM
      1 C         143.5480  141.5498  162.3172 C.ar    1  UNL1        0.0674
      2 C         144.6349  141.2530  163.3073 C.ar    1  UNL1        0.1133
      3 N         144.3743  141.4086  164.7762 N.ar    1  UNL1       -0.2425
      4 C         143.0266  141.8610  165.2550 C.ar    1  UNL1        0.0825
      5 C         142.7660  142.0166  166.7241 C.ar    1  UNL1        0.0230
      6 C         141.4183  142.4690  167.2028 C.ar    1  UNL1        0.0741
      7 C         140.3314  142.7658  166.2126 C.ar    1  UNL1        0.0183
      8 C         140.5920  142.6102  164.7437 C.ar    1  UNL1        0.0463
      9 C         141.9397  142.1578  164.2649 C.ar    1  UNL1        0.0320
     10 C         142.2004  142.0022  162.7960 C.ar    1  UNL1        0.0188
     11 C         145.1751  142.0656  155.6586 C.3     1  UNL1        0.0948
     12 C         144.5906  140.9274  156.4413 C.2     1  UNL1        0.2262
     13 O         144.2666  139.6335  155.7550 O.2     1  UNL1       -0.2749
     14 N         144.3299  141.0830  157.9102 N.am    1  UNL1       -0.2760
     15 C         144.6539  142.3769  158.5965 C.3     1  UNL1        0.1148
     16 C         144.3932  142.5325  160.0655 C.3     1  UNL1        0.1124
     17 N         143.8087  141.3942  160.8482 N.pl3   1  UNL1       -0.3028
     18 C         143.4847  140.1003  160.1619 C.3     1  UNL1        0.1124
     19 C         143.7454  139.9447  158.6930 C.3     1  UNL1        0.1148
     20 C         141.1577  142.6246  168.6718 C.3     1  UNL1        0.4187
     21 F         140.8969  142.7802  170.1408 F       1  UNL1       -0.1659
     22 F         140.0856  143.6308  168.3749 F       1  UNL1       -0.1659
     23 F         142.2297  141.6184  168.9686 F       1  UNL1       -0.1659
     24 N         139.5051  142.9070  163.7536 N.pl3   1  UNL1       -0.3290
     25 H         139.4312  143.8056  163.3584 H       1  UNL1        0.1471
     26 C         138.5308  141.8345  163.3655 C.3     1  UNL1        0.1145
     27 C         138.6511  140.4617  163.9581 C.ar    1  UNL1        0.0035
     28 C         139.2619  139.3501  163.1573 C.ar    1  UNL1       -0.0022
     29 C         139.3823  137.9774  163.7499 C.ar    1  UNL1        0.0060
     30 C         138.8917  137.7163  165.1432 C.ar    1  UNL1        0.0752
     31 C         138.2809  138.8279  165.9439 C.ar    1  UNL1        0.2898
     32 C         138.1606  140.2007  165.3513 C.ar    1  UNL1        0.0727
     33 N         137.7904  138.5668  167.3372 N.pl3   1  UNL1        0.0809
     34 O         136.6708  137.5958  167.5685 O.2     1  UNL1        0.0415
     35 O         138.4196  139.2767  168.4991 O.co2   1  UNL1       -0.5760
@<TRIPOS>UNITY_ATOM_ATTR
33 1
charge 1
35 1
charge -1
@<TRIPOS>BOND
     1    11    12    1
     2    12    13    2
     3    12    14   am
     4    14    15    1
     5    15    16    1
     6    16    17    1
     7    17     1    1
     8     1     2   ar
     9     2     3   ar
    10     3     4   ar
    11     4     5   ar
    12     5     6   ar
    13     6    20    1
    14    20    21    1
    15    20    22    1
    16    20    23    1
    17     6     7   ar
    18     7     8   ar
    19     8    24    1
    20    24    26    1
    21    26    27    1
    22    27    28   ar
    23    28    29   ar
    24    29    30   ar
    25    30    31   ar
    26    31    33    1
    27    33    34    2
    28    33    35    1
    29    31    32   ar
    30     8     9   ar
    31     9    10   ar
    32    17    18    1
    33    18    19    1
    34    19    14    1
    35    10     1   ar
    36     9     4   ar
    37    32    27   ar
    38    24    25    1
@<TRIPOS>MOLECULE
*****
 35 38 0 0 0
SMALL
GASTEIGER

@<TRIPOS>ATOM
      1 C         142.5335  142.0519  164.2564 C.ar    1  UNL1        0.0674
      2 C         143.5497  141.6528  163.2278 C.ar    1  UNL1        0.1133
      3 N         143.5041  142.2558  161.8552 N.ar    1  UNL1       -0.2425
      4 C         142.4423  143.2579  161.5111 C.ar    1  UNL1        0.0825
      5 C         142.3968  143.8609  160.1383 C.ar    1  UNL1        0.0230
      6 C         141.3350  144.8630  159.7942 C.ar    1  UNL1        0.0741
      7 C         140.3188  145.2621  160.8228 C.ar    1  UNL1        0.0183
      8 C         140.3643  144.6592  162.1955 C.ar    1  UNL1        0.0463
      9 C         141.4261  143.6570  162.5396 C.ar    1  UNL1        0.0320
     10 C         141.4717  143.0541  163.9123 C.ar    1  UNL1        0.0188
     11 C         142.5351  140.5106  170.9552 C.3     1  UNL1        0.0948
     12 C         142.7156  139.6399  169.7473 C.2     1  UNL1        0.2262
     13 O         142.9417  138.1662  169.9119 O.2     1  UNL1       -0.2749
     14 N         142.6701  140.2429  168.3746 N.am    1  UNL1       -0.2760
     15 C         142.4441  141.7166  168.2099 C.3     1  UNL1        0.1148
     16 C         142.3985  142.3196  166.8371 C.3     1  UNL1        0.1124
     17 N         142.5790  141.4489  165.6292 N.pl3   1  UNL1       -0.3028
     18 C         142.8050  139.9752  165.7938 C.3     1  UNL1        0.1124
     19 C         142.8506  139.3722  167.1665 C.3     1  UNL1        0.1148
     20 C         141.2894  145.4660  158.4215 C.3     1  UNL1        0.4187
     21 F         141.2438  146.0691  157.0488 F       1  UNL1       -0.1659
     22 F         139.9461  146.0594  158.7268 F       1  UNL1       -0.1659
     23 F         142.6328  144.8726  158.1162 F       1  UNL1       -0.1659
     24 N         139.3482  145.0583  163.2241 N.pl3   1  UNL1       -0.3290
     25 H         139.5374  145.8026  163.8401 H       1  UNL1        0.1471
     26 C         138.0436  144.3234  163.3142 C.3     1  UNL1        0.1145
     27 C         138.0280  142.8237  163.3428 C.ar    1  UNL1        0.0035
     28 C         137.7789  142.0520  162.0809 C.ar    1  UNL1       -0.0022
     29 C         137.7633  140.5524  162.1094 C.ar    1  UNL1        0.0060
     30 C         137.9969  139.8244  163.4000 C.ar    1  UNL1        0.0752
     31 C         138.2461  140.5960  164.6619 C.ar    1  UNL1        0.2898
     32 C         138.2616  142.0957  164.6333 C.ar    1  UNL1        0.0727
     33 N         138.4797  139.8681  165.9524 N.pl3   1  UNL1        0.0809
     34 O         139.3694  140.4671  167.0010 O.2     1  UNL1        0.0415
     35 O         137.8235  138.5411  166.1944 O.co2   1  UNL1       -0.5760
@<TRIPOS>UNITY_ATOM_ATTR
33 1
charge 1
35 1
charge -1
@<TRIPOS>BOND
     1    11    12    1
     2    12    13    2
     3    12    14   am
     4    14    15    1
     5    15    16    1
     6    16    17    1
     7    17     1    1
     8     1     2   ar
     9     2     3   ar
    10     3     4   ar
    11     4     5   ar
    12     5     6   ar
    13     6    20    1
    14    20    21    1
    15    20    22    1
    16    20    23    1
    17     6     7   ar
    18     7     8   ar
    19     8    24    1
    20    24    26    1
    21    26    27    1
    22    27    28   ar
    23    28    29   ar
    24    29    30   ar
    25    30    31   ar
    26    31    33    1
    27    33    34    2
    28    33    35    1
    29    31    32   ar
    30     8     9   ar
    31     9    10   ar
    32    17    18    1
    33    18    19    1
    34    19    14    1
    35    10     1   ar
    36     9     4   ar
    37    32    27   ar
    38    24    25    1
@<TRIPOS>MOLECULE
*****
 35 38 0 0 0
SMALL
GASTEIGER

@<TRIPOS>ATOM
      1 C         143.1273  142.4299  162.6484 C.ar    1  UNL1        0.0674
      2 C         144.3578  142.1377  163.4548 C.ar    1  UNL1        0.1133
      3 N         144.2733  142.0592  164.9503 N.ar    1  UNL1       -0.2425
      4 C         142.9582  142.2731  165.6394 C.ar    1  UNL1        0.0825
      5 C         142.8738  142.1946  167.1350 C.ar    1  UNL1        0.0230
      6 C         141.5587  142.4085  167.8242 C.ar    1  UNL1        0.0741
      7 C         140.3281  142.7008  167.0177 C.ar    1  UNL1        0.0183
      8 C         140.4127  142.7792  165.5222 C.ar    1  UNL1        0.0463
      9 C         141.7277  142.5654  164.8330 C.ar    1  UNL1        0.0320
     10 C         141.8122  142.6438  163.3375 C.ar    1  UNL1        0.0188
     11 C         144.2832  141.7412  155.9075 C.3     1  UNL1        0.0948
     12 C         143.4651  142.7438  156.6661 C.2     1  UNL1        0.2262
     13 O         142.7315  143.8249  155.9291 O.2     1  UNL1       -0.2749
     14 N         143.3807  142.6653  158.1616 N.am    1  UNL1       -0.2760
     15 C         144.1143  141.5842  158.8985 C.3     1  UNL1        0.1148
     16 C         144.0298  141.5058  160.3942 C.3     1  UNL1        0.1124
     17 N         143.2118  142.5084  161.1527 N.pl3   1  UNL1       -0.3028
     18 C         142.4781  143.5895  160.4158 C.3     1  UNL1        0.1124
     19 C         142.5626  143.6679  158.9203 C.3     1  UNL1        0.1148
     20 C         141.4742  142.3300  169.3197 C.3     1  UNL1        0.4187
     21 F         141.3896  142.2516  170.8153 F       1  UNL1       -0.1659
     22 F         140.0492  141.8736  169.2152 F       1  UNL1       -0.1659
     23 F         142.8992  142.7865  169.4242 F       1  UNL1       -0.1659
     24 N         139.1821  143.0715  164.7158 N.pl3   1  UNL1       -0.3290
     25 H         139.1033  143.9238  164.2294 H       1  UNL1        0.1471
     26 C         138.0717  142.0651  164.6504 C.3     1  UNL1        0.1145
     27 C         138.3883  140.5990  164.6337 C.ar    1  UNL1        0.0035
     28 C         138.1452  139.7653  165.8567 C.ar    1  UNL1       -0.0022
     29 C         138.4618  138.2992  165.8401 C.ar    1  UNL1        0.0060
     30 C         139.0214  137.6667  164.6003 C.ar    1  UNL1        0.0752
     31 C         139.2644  138.5004  163.3773 C.ar    1  UNL1        0.2898
     32 C         138.9479  139.9666  163.3940 C.ar    1  UNL1        0.0727
     33 N         139.8240  137.8681  162.1376 N.pl3   1  UNL1        0.0809
     34 O         139.0562  137.9325  160.8506 O.2     1  UNL1        0.0415
     35 O         141.1514  137.1712  162.1848 O.co2   1  UNL1       -0.5760
@<TRIPOS>UNITY_ATOM_ATTR
33 1
charge 1
35 1
charge -1
@<TRIPOS>BOND
     1    11    12    1
     2    12    13    2
     3    12    14   am
     4    14    15    1
     5    15    16    1
     6    16    17    1
     7    17     1    1
     8     1     2   ar
     9     2     3   ar
    10     3     4   ar
    11     4     5   ar
    12     5     6   ar
    13     6    20    1
    14    20    21    1
    15    20    22    1
    16    20    23    1
    17     6     7   ar
    18     7     8   ar
    19     8    24    1
    20    24    26    1
    21    26    27    1
    22    27    28   ar
    23    28    29   ar
    24    29    30   ar
    25    30    31   ar
    26    31    33    1
    27    33    34    2
    28    33    35    1
    29    31    32   ar
    30     8     9   ar
    31     9    10   ar
    32    17    18    1
    33    18    19    1
    34    19    14    1
    35    10     1   ar
    36     9     4   ar
    37    32    27   ar
    38    24    25    1
