@<TRIPOS>MOLECULE
*****
 33 37 0 0 0
SMALL
GASTEIGER

@<TRIPOS>ATOM
      1 N         142.8091  142.8093  164.2566 N.pl3   1  UNL1       -0.3133
      2 C         142.6076  142.3592  165.6733 C.2     1  UNL1        0.2770
      3 N         141.4766  141.5124  166.1768 N.2     1  UNL1       -0.2204
      4 C         141.6718  141.3068  167.6499 C.3     1  UNL1        0.1537
      5 C         142.9235  142.0265  168.0565 C.3     1  UNL1        0.2350
      6 O         143.5018  142.6769  166.8349 O.2     1  UNL1       -0.4478
      7 C         140.4480  140.6381  167.0973 C.ar    1  UNL1        0.0355
      8 C         140.1230  140.7565  165.6378 C.ar    1  UNL1        0.0007
      9 C         138.8992  140.0878  165.0852 C.ar    1  UNL1        0.0015
     10 C         138.0005  139.3007  165.9923 C.ar    1  UNL1        0.0031
     11 C         138.3256  139.1822  167.4519 C.ar    1  UNL1        0.0366
     12 C         139.5493  139.8509  168.0044 C.ar    1  UNL1        0.1364
     13 O         139.8744  139.7325  169.4640 O.3     1  UNL1       -0.4756
     14 C         141.0981  140.4012  170.0164 C.3     1  UNL1        0.2074
     15 C         141.9968  141.1883  169.1094 C.3     1  UNL1        0.0666
     16 C         143.2222  142.0288  168.9047 C.3     1  UNL1        0.0061
     17 C         142.8911  141.5060  170.2710 C.3     1  UNL1        0.0061
     18 H         142.1638  142.5480  163.5605 H       1  UNL1        0.1466
     19 H         143.5867  143.3661  164.0228 H       1  UNL1        0.1466
     20 C         138.5741  140.2063  163.6257 C.ar    1  UNL1        0.0222
     21 C         138.2984  138.9739  162.8163 C.ar    1  UNL1        0.0991
     22 N         137.9733  139.0923  161.3568 N.ar    1  UNL1       -0.2391
     23 C         137.9240  140.4433  160.7066 C.ar    1  UNL1        0.1356
     24 C         138.1998  141.6757  161.5160 C.ar    1  UNL1        0.1579
     25 C         138.5248  141.5571  162.9756 C.ar    1  UNL1        0.0401
     26 O         138.1505  143.0265  160.8659 O.3     1  UNL1       -0.4678
     27 C         139.3650  143.9068  160.8727 C.3     1  UNL1        0.2773
     28 C         139.8256  144.5394  162.1525 C.3     1  UNL1        0.3634
     29 F         138.4062  144.8849  162.4927 F       1  UNL1       -0.1941
     30 F         141.2451  144.1938  161.8123 F       1  UNL1       -0.1941
     31 C         140.2863  145.1719  163.4322 C.3     1  UNL1        0.3820
     32 F         141.6557  145.7779  163.5188 F       1  UNL1       -0.1921
     33 F         139.3776  145.1983  164.6254 F       1  UNL1       -0.1921
@<TRIPOS>BOND
     1     1     2    1
     2     2     3    2
     3     3     4    1
     4     4     5    1
     5     5     6    1
     6     4     7    1
     7     7     8   ar
     8     8     9   ar
     9     9    20    1
    10    20    21   ar
    11    21    22   ar
    12    22    23   ar
    13    23    24   ar
    14    24    26    1
    15    26    27    1
    16    27    28    1
    17    28    29    1
    18    28    30    1
    19    28    31    1
    20    31    32    1
    21    31    33    1
    22    24    25   ar
    23     9    10   ar
    24    10    11   ar
    25    11    12   ar
    26    12    13    1
    27    13    14    1
    28    14    15    1
    29    15    16    1
    30    16    17    1
    31     6     2    1
    32    12     7   ar
    33    17    15    1
    34    15     4    1
    35    25    20   ar
    36     1    18    1
    37     1    19    1
@<TRIPOS>MOLECULE
*****
 33 37 0 0 0
SMALL
GASTEIGER

@<TRIPOS>ATOM
      1 N         139.0681  144.5941  164.3757 N.pl3   1  UNL1       -0.3133
      2 C         138.8913  143.5782  163.2862 C.2     1  UNL1        0.2770
      3 N         138.8984  142.0884  163.4604 N.2     1  UNL1       -0.2204
      4 C         138.6879  141.4633  162.1131 C.3     1  UNL1        0.1537
      5 C         138.5509  142.5668  161.1064 C.3     1  UNL1        0.2350
      6 O         138.6766  143.8738  161.8314 O.2     1  UNL1       -0.4478
      7 C         138.8427  140.4720  163.2283 C.ar    1  UNL1        0.0355
      8 C         139.0599  140.9512  164.6330 C.ar    1  UNL1        0.0007
      9 C         139.2147  139.9599  165.7481 C.ar    1  UNL1        0.0015
     10 C         139.1523  138.4895  165.4585 C.ar    1  UNL1        0.0031
     11 C         138.9351  138.0103  164.0537 C.ar    1  UNL1        0.0366
     12 C         138.7803  139.0015  162.9387 C.ar    1  UNL1        0.1364
     13 O         138.5631  138.5224  161.5339 O.3     1  UNL1       -0.4756
     14 C         138.4083  139.5136  160.4189 C.3     1  UNL1        0.2074
     15 C         138.4708  140.9841  160.7085 C.3     1  UNL1        0.0666
     16 C         138.4174  142.4053  160.2319 C.3     1  UNL1        0.0061
     17 C         138.2560  141.2797  159.2537 C.3     1  UNL1        0.0061
     18 H         139.2040  144.3003  165.3054 H       1  UNL1        0.1466
     19 H         139.0482  145.5547  164.1609 H       1  UNL1        0.1466
     20 C         139.4319  140.4391  167.1528 C.ar    1  UNL1        0.0222
     21 C         140.3105  141.6267  167.4127 C.ar    1  UNL1        0.0991
     22 N         140.5277  142.1059  168.8174 N.ar    1  UNL1       -0.2391
     23 C         139.8662  141.3975  169.9622 C.ar    1  UNL1        0.1356
     24 C         138.9876  140.2099  169.7023 C.ar    1  UNL1        0.1579
     25 C         138.7704  139.7307  168.2976 C.ar    1  UNL1        0.0401
     26 O         138.3261  139.5015  170.8471 O.3     1  UNL1       -0.4678
     27 C         136.8650  139.1692  170.7799 C.3     1  UNL1        0.2773
     28 C         136.2680  138.2091  171.7657 C.3     1  UNL1        0.3634
     29 F         134.8921  138.6435  171.3557 F       1  UNL1       -0.1941
     30 F         137.6439  137.7746  172.1758 F       1  UNL1       -0.1941
     31 C         135.6710  137.2489  172.7515 C.3     1  UNL1        0.3820
     32 F         134.2722  137.4593  173.2506 F       1  UNL1       -0.1921
     33 F         136.4729  136.0784  173.2382 F       1  UNL1       -0.1921
@<TRIPOS>BOND
     1     1     2    1
     2     2     3    2
     3     3     4    1
     4     4     5    1
     5     5     6    1
     6     4     7    1
     7     7     8   ar
     8     8     9   ar
     9     9    20    1
    10    20    21   ar
    11    21    22   ar
    12    22    23   ar
    13    23    24   ar
    14    24    26    1
    15    26    27    1
    16    27    28    1
    17    28    29    1
    18    28    30    1
    19    28    31    1
    20    31    32    1
    21    31    33    1
    22    24    25   ar
    23     9    10   ar
    24    10    11   ar
    25    11    12   ar
    26    12    13    1
    27    13    14    1
    28    14    15    1
    29    15    16    1
    30    16    17    1
    31     6     2    1
    32    12     7   ar
    33    17    15    1
    34    15     4    1
    35    25    20   ar
    36     1    18    1
    37     1    19    1
@<TRIPOS>MOLECULE
*****
 33 37 0 0 0
SMALL
GASTEIGER

@<TRIPOS>ATOM
      1 N         143.4726  142.4514  165.1046 N.pl3   1  UNL1       -0.3133
      2 C         142.8790  142.1677  166.4527 C.2     1  UNL1        0.2770
      3 N         141.6468  141.3553  166.7202 N.2     1  UNL1       -0.2204
      4 C         141.4198  141.3322  168.2028 C.3     1  UNL1        0.1537
      5 C         142.5117  142.1303  168.8514 C.3     1  UNL1        0.2350
      6 O         143.4135  142.6467  167.7698 O.2     1  UNL1       -0.4478
      7 C         140.3959  140.5680  167.4168 C.ar    1  UNL1        0.0355
      8 C         140.4940  140.5025  165.9214 C.ar    1  UNL1        0.0007
      9 C         139.4702  139.7383  165.1354 C.ar    1  UNL1        0.0015
     10 C         138.3482  139.0397  165.8447 C.ar    1  UNL1        0.0031
     11 C         138.2501  139.1053  167.3401 C.ar    1  UNL1        0.0366
     12 C         139.2740  139.8694  168.1261 C.ar    1  UNL1        0.1364
     13 O         139.1759  139.9350  169.6215 O.3     1  UNL1       -0.4756
     14 C         140.1998  140.6991  170.4075 C.3     1  UNL1        0.2074
     15 C         141.3217  141.3977  169.6981 C.3     1  UNL1        0.0666
     16 C         142.5606  142.2422  169.7424 C.3     1  UNL1        0.0061
     17 C         141.8562  141.8767  171.0153 C.3     1  UNL1        0.0061
     18 H         143.0467  142.0908  164.2935 H       1  UNL1        0.1466
     19 H         144.2880  142.9981  165.0309 H       1  UNL1        0.1466
     20 C         139.5683  139.6728  163.6401 C.ar    1  UNL1        0.0222
     21 C         138.3720  139.2761  162.8266 C.ar    1  UNL1        0.0991
     22 N         138.4701  139.2106  161.3313 N.ar    1  UNL1       -0.2391
     23 C         139.7645  139.5418  160.6493 C.ar    1  UNL1        0.1356
     24 C         140.9607  139.9385  161.4628 C.ar    1  UNL1        0.1579
     25 C         140.8626  140.0040  162.9582 C.ar    1  UNL1        0.0401
     26 O         142.2551  140.2696  160.7809 O.3     1  UNL1       -0.4678
     27 C         143.4920  139.4822  161.0967 C.3     1  UNL1        0.2773
     28 C         143.9835  139.3928  162.5111 C.3     1  UNL1        0.3634
     29 F         144.4530  140.8155  162.4380 F       1  UNL1       -0.1941
     30 F         143.5140  137.9700  162.5844 F       1  UNL1       -0.1941
     31 C         144.4749  139.3033  163.9255 C.3     1  UNL1        0.3820
     32 F         143.7017  138.5136  164.9396 F       1  UNL1       -0.1921
     33 F         145.7397  140.0036  164.3258 F       1  UNL1       -0.1921
@<TRIPOS>BOND
     1     1     2    1
     2     2     3    2
     3     3     4    1
     4     4     5    1
     5     5     6    1
     6     4     7    1
     7     7     8   ar
     8     8     9   ar
     9     9    20    1
    10    20    21   ar
    11    21    22   ar
    12    22    23   ar
    13    23    24   ar
    14    24    26    1
    15    26    27    1
    16    27    28    1
    17    28    29    1
    18    28    30    1
    19    28    31    1
    20    31    32    1
    21    31    33    1
    22    24    25   ar
    23     9    10   ar
    24    10    11   ar
    25    11    12   ar
    26    12    13    1
    27    13    14    1
    28    14    15    1
    29    15    16    1
    30    16    17    1
    31     6     2    1
    32    12     7   ar
    33    17    15    1
    34    15     4    1
    35    25    20   ar
    36     1    18    1
    37     1    19    1
@<TRIPOS>MOLECULE
*****
 33 37 0 0 0
SMALL
GASTEIGER

@<TRIPOS>ATOM
      1 N         139.0551  143.7866  164.5027 N.pl3   1  UNL1       -0.3133
      2 C         138.8540  142.5592  163.6641 C.2     1  UNL1        0.2770
      3 N         139.5762  141.2543  163.8237 N.2     1  UNL1       -0.2204
      4 C         139.0639  140.3099  162.7769 C.3     1  UNL1        0.1537
      5 C         138.0250  141.0313  161.9704 C.3     1  UNL1        0.2350
      6 O         137.8953  142.4213  162.5187 O.2     1  UNL1       -0.4478
      7 C         140.1181  139.7209  163.6666 C.ar    1  UNL1        0.0355
      8 C         140.7244  140.5487  164.7607 C.ar    1  UNL1        0.0007
      9 C         141.7787  139.9596  165.6505 C.ar    1  UNL1        0.0015
     10 C         142.2266  138.5427  165.4461 C.ar    1  UNL1        0.0031
     11 C         141.6202  137.7149  164.3519 C.ar    1  UNL1        0.0366
     12 C         140.5660  138.3040  163.4622 C.ar    1  UNL1        0.1364
     13 O         139.9597  137.4761  162.3681 O.3     1  UNL1       -0.4756
     14 C         138.9055  138.0652  161.4784 C.3     1  UNL1        0.2074
     15 C         138.4576  139.4821  161.6828 C.3     1  UNL1        0.0666
     16 C         137.5903  140.6402  161.2871 C.3     1  UNL1        0.0061
     17 C         137.4988  139.3443  160.5374 C.3     1  UNL1        0.0061
     18 H         139.7117  143.7794  165.2363 H       1  UNL1        0.1466
     19 H         138.5306  144.5993  164.3195 H       1  UNL1        0.1466
     20 C         142.3850  140.7874  166.7446 C.ar    1  UNL1        0.0222
     21 C         143.1911  142.0058  166.4043 C.ar    1  UNL1        0.0991
     22 N         143.7974  142.8336  167.4984 N.ar    1  UNL1       -0.2391
     23 C         143.5976  142.4431  168.9328 C.ar    1  UNL1        0.1356
     24 C         142.7915  141.2247  169.2731 C.ar    1  UNL1        0.1579
     25 C         142.1852  140.3969  168.1789 C.ar    1  UNL1        0.0401
     26 O         142.5918  140.8341  170.7075 O.3     1  UNL1       -0.4678
     27 C         141.2384  140.9689  171.3400 C.3     1  UNL1        0.2773
     28 C         140.0098  140.5781  170.5730 C.3     1  UNL1        0.3634
     29 F         139.6196  142.0222  170.4622 F       1  UNL1       -0.1941
     30 F         140.4000  139.1339  170.6839 F       1  UNL1       -0.1941
     31 C         138.7814  140.1873  169.8062 C.3     1  UNL1        0.3820
     32 F         137.4715  140.0269  170.5192 F       1  UNL1       -0.1921
     33 F         138.8628  139.9569  168.3262 F       1  UNL1       -0.1921
@<TRIPOS>BOND
     1     1     2    1
     2     2     3    2
     3     3     4    1
     4     4     5    1
     5     5     6    1
     6     4     7    1
     7     7     8   ar
     8     8     9   ar
     9     9    20    1
    10    20    21   ar
    11    21    22   ar
    12    22    23   ar
    13    23    24   ar
    14    24    26    1
    15    26    27    1
    16    27    28    1
    17    28    29    1
    18    28    30    1
    19    28    31    1
    20    31    32    1
    21    31    33    1
    22    24    25   ar
    23     9    10   ar
    24    10    11   ar
    25    11    12   ar
    26    12    13    1
    27    13    14    1
    28    14    15    1
    29    15    16    1
    30    16    17    1
    31     6     2    1
    32    12     7   ar
    33    17    15    1
    34    15     4    1
    35    25    20   ar
    36     1    18    1
    37     1    19    1
@<TRIPOS>MOLECULE
*****
 33 37 0 0 0
SMALL
GASTEIGER

@<TRIPOS>ATOM
      1 N         138.3192  139.4204  166.2397 N.pl3   1  UNL1       -0.3133
      2 C         139.3282  139.9061  167.2378 C.2     1  UNL1        0.2770
      3 N         140.5324  140.7479  166.9358 N.2     1  UNL1       -0.2204
      4 C         141.2585  140.9973  168.2245 C.3     1  UNL1        0.1537
      5 C         140.5030  140.3096  169.3228 C.3     1  UNL1        0.2350
      6 O         139.3100  139.6352  168.7130 O.2     1  UNL1       -0.4478
      7 C         141.9044  141.6304  167.0278 C.ar    1  UNL1        0.0355
      8 C         141.2900  141.4664  165.6693 C.ar    1  UNL1        0.0007
      9 C         141.9358  142.0996  164.4726 C.ar    1  UNL1        0.0015
     10 C         143.1962  142.8967  164.6345 C.ar    1  UNL1        0.0031
     11 C         143.8106  143.0607  165.9931 C.ar    1  UNL1        0.0366
     12 C         143.1647  142.4276  167.1897 C.ar    1  UNL1        0.1364
     13 O         143.7791  142.5916  168.5483 O.3     1  UNL1       -0.4756
     14 C         143.1332  141.9584  169.7449 C.3     1  UNL1        0.2074
     15 C         141.8729  141.1613  169.5830 C.3     1  UNL1        0.0666
     16 C         140.7724  140.3356  170.1804 C.3     1  UNL1        0.0061
     17 C         141.8547  140.8905  171.0582 C.3     1  UNL1        0.0061
     18 H         138.4175  139.6518  165.2878 H       1  UNL1        0.1466
     19 H         137.5587  138.8701  166.5365 H       1  UNL1        0.1466
     20 C         141.3214  141.9356  163.1141 C.ar    1  UNL1        0.0222
     21 C         141.7980  142.7787  161.9687 C.ar    1  UNL1        0.0991
     22 N         141.1836  142.6147  160.6102 N.ar    1  UNL1       -0.2391
     23 C         140.0925  141.6075  160.3971 C.ar    1  UNL1        0.1356
     24 C         139.6160  140.7644  161.5425 C.ar    1  UNL1        0.1579
     25 C         140.2305  140.9284  162.9011 C.ar    1  UNL1        0.0401
     26 O         138.5250  139.7572  161.3295 O.3     1  UNL1       -0.4678
     27 C         138.8187  138.2929  161.4681 C.3     1  UNL1        0.2773
     28 C         139.7071  137.8076  162.5751 C.3     1  UNL1        0.3634
     29 F         140.8764  137.8050  161.6356 F       1  UNL1       -0.1941
     30 F         138.5378  137.8102  163.5147 F       1  UNL1       -0.1941
     31 C         140.5954  137.3223  163.6820 C.3     1  UNL1        0.3820
     32 F         140.0039  136.9457  165.0080 F       1  UNL1       -0.1921
     33 F         142.0754  137.2136  163.4630 F       1  UNL1       -0.1921
@<TRIPOS>BOND
     1     1     2    1
     2     2     3    2
     3     3     4    1
     4     4     5    1
     5     5     6    1
     6     4     7    1
     7     7     8   ar
     8     8     9   ar
     9     9    20    1
    10    20    21   ar
    11    21    22   ar
    12    22    23   ar
    13    23    24   ar
    14    24    26    1
    15    26    27    1
    16    27    28    1
    17    28    29    1
    18    28    30    1
    19    28    31    1
    20    31    32    1
    21    31    33    1
    22    24    25   ar
    23     9    10   ar
    24    10    11   ar
    25    11    12   ar
    26    12    13    1
    27    13    14    1
    28    14    15    1
    29    15    16    1
    30    16    17    1
    31     6     2    1
    32    12     7   ar
    33    17    15    1
    34    15     4    1
    35    25    20   ar
    36     1    18    1
    37     1    19    1
@<TRIPOS>MOLECULE
*****
 33 37 0 0 0
SMALL
GASTEIGER

@<TRIPOS>ATOM
      1 N         139.8557  143.7450  165.7614 N.pl3   1  UNL1       -0.3133
      2 C         140.3837  142.9393  166.9112 C.2     1  UNL1        0.2770
      3 N         141.2092  141.6912  166.8077 N.2     1  UNL1       -0.2204
      4 C         141.5146  141.2208  168.1990 C.3     1  UNL1        0.1537
      5 C         140.8779  142.1783  169.1622 C.3     1  UNL1        0.2350
      6 O         140.1790  143.2404  168.3664 O.2     1  UNL1       -0.4478
      7 C         142.0926  140.3528  167.1207 C.ar    1  UNL1        0.0355
      8 C         141.8692  140.6994  165.6785 C.ar    1  UNL1        0.0007
      9 C         142.4472  139.8314  164.6003 C.ar    1  UNL1        0.0015
     10 C         143.2486  138.6168  164.9643 C.ar    1  UNL1        0.0031
     11 C         143.4720  138.2703  166.4066 C.ar    1  UNL1        0.0366
     12 C         142.8940  139.1382  167.4847 C.ar    1  UNL1        0.1364
     13 O         143.1174  138.7917  168.9270 O.3     1  UNL1       -0.4756
     14 C         142.5394  139.6597  170.0052 C.3     1  UNL1        0.2074
     15 C         141.7380  140.8742  169.6411 C.3     1  UNL1        0.0666
     16 C         140.9416  142.0766  170.0535 C.3     1  UNL1        0.0061
     17 C         141.5333  141.1753  171.0963 C.3     1  UNL1        0.0061
     18 H         140.0443  143.4652  164.8365 H       1  UNL1        0.1466
     19 H         139.3205  144.5537  165.9316 H       1  UNL1        0.1466
     20 C         142.2238  140.1780  163.1581 C.ar    1  UNL1        0.0222
     21 C         143.3755  140.6239  162.3068 C.ar    1  UNL1        0.0991
     22 N         143.1521  140.9705  160.8646 N.ar    1  UNL1       -0.2391
     23 C         141.7769  140.8712  160.2737 C.ar    1  UNL1        0.1356
     24 C         140.6252  140.4253  161.1250 C.ar    1  UNL1        0.1579
     25 C         140.8487  140.0787  162.5673 C.ar    1  UNL1        0.0401
     26 O         139.2501  140.3259  160.5342 O.3     1  UNL1       -0.4678
     27 C         138.3831  141.5465  160.4428 C.3     1  UNL1        0.2773
     28 C         138.0461  142.3215  161.6821 C.3     1  UNL1        0.3634
     29 F         138.8435  143.4849  161.1716 F       1  UNL1       -0.1941
     30 F         137.2485  141.1582  162.1927 F       1  UNL1       -0.1941
     31 C         137.7090  143.0965  162.9214 C.3     1  UNL1        0.3820
     32 F         137.2999  142.3732  164.1702 F       1  UNL1       -0.1921
     33 F         137.7810  144.5948  162.9119 F       1  UNL1       -0.1921
@<TRIPOS>BOND
     1     1     2    1
     2     2     3    2
     3     3     4    1
     4     4     5    1
     5     5     6    1
     6     4     7    1
     7     7     8   ar
     8     8     9   ar
     9     9    20    1
    10    20    21   ar
    11    21    22   ar
    12    22    23   ar
    13    23    24   ar
    14    24    26    1
    15    26    27    1
    16    27    28    1
    17    28    29    1
    18    28    30    1
    19    28    31    1
    20    31    32    1
    21    31    33    1
    22    24    25   ar
    23     9    10   ar
    24    10    11   ar
    25    11    12   ar
    26    12    13    1
    27    13    14    1
    28    14    15    1
    29    15    16    1
    30    16    17    1
    31     6     2    1
    32    12     7   ar
    33    17    15    1
    34    15     4    1
    35    25    20   ar
    36     1    18    1
    37     1    19    1
@<TRIPOS>MOLECULE
*****
 33 37 0 0 0
SMALL
GASTEIGER

@<TRIPOS>ATOM
      1 N         144.2069  141.1170  162.8865 N.pl3   1  UNL1       -0.3133
      2 C         142.9347  141.4501  162.1649 C.2     1  UNL1        0.2770
      3 N         141.5476  141.3329  162.7235 N.2     1  UNL1       -0.2204
      4 C         140.5819  141.7693  161.6618 C.3     1  UNL1        0.1537
      5 C         141.3724  142.1563  160.4471 C.3     1  UNL1        0.2350
      6 O         142.8264  141.9590  160.7580 O.2     1  UNL1       -0.4478
      7 C         139.9288  141.3496  162.9453 C.ar    1  UNL1        0.0355
      8 C         140.7695  140.8879  164.0986 C.ar    1  UNL1        0.0007
      9 C         140.1164  140.4682  165.3821 C.ar    1  UNL1        0.0015
     10 C         138.6227  140.5103  165.5123 C.ar    1  UNL1        0.0031
     11 C         137.7820  140.9720  164.3590 C.ar    1  UNL1        0.0366
     12 C         138.4351  141.3917  163.0755 C.ar    1  UNL1        0.1364
     13 O         137.5944  141.8534  161.9221 O.3     1  UNL1       -0.4756
     14 C         138.2475  142.2731  160.6387 C.3     1  UNL1        0.2074
     15 C         139.7413  142.2310  160.5085 C.3     1  UNL1        0.0666
     16 C         140.9807  142.4490  159.6923 C.3     1  UNL1        0.0061
     17 C         139.6330  142.7399  159.1016 C.3     1  UNL1        0.0061
     18 H         144.1751  140.7877  163.8138 H       1  UNL1        0.1466
     19 H         145.0736  141.2276  162.4329 H       1  UNL1        0.1466
     20 C         140.9570  140.0065  166.5354 C.ar    1  UNL1        0.0222
     21 C         142.3061  139.4004  166.2849 C.ar    1  UNL1        0.0991
     22 N         143.1467  138.9387  167.4382 N.ar    1  UNL1       -0.2391
     23 C         142.6384  139.0831  168.8421 C.ar    1  UNL1        0.1356
     24 C         141.2893  139.6892  169.0926 C.ar    1  UNL1        0.1579
     25 C         140.4487  140.1509  167.9392 C.ar    1  UNL1        0.0401
     26 O         140.7810  139.8336  170.4963 O.3     1  UNL1       -0.4678
     27 C         140.7942  141.1766  171.1643 C.3     1  UNL1        0.2773
     28 C         140.5874  142.4205  170.3518 C.3     1  UNL1        0.3634
     29 F         142.0710  142.6367  170.3052 F       1  UNL1       -0.1941
     30 F         139.1038  142.2043  170.3984 F       1  UNL1       -0.1941
     31 C         140.3806  143.6643  169.5393 C.3     1  UNL1        0.3820
     32 F         140.4220  145.0090  170.2027 F       1  UNL1       -0.1921
     33 F         140.1324  143.5634  168.0634 F       1  UNL1       -0.1921
@<TRIPOS>BOND
     1     1     2    1
     2     2     3    2
     3     3     4    1
     4     4     5    1
     5     5     6    1
     6     4     7    1
     7     7     8   ar
     8     8     9   ar
     9     9    20    1
    10    20    21   ar
    11    21    22   ar
    12    22    23   ar
    13    23    24   ar
    14    24    26    1
    15    26    27    1
    16    27    28    1
    17    28    29    1
    18    28    30    1
    19    28    31    1
    20    31    32    1
    21    31    33    1
    22    24    25   ar
    23     9    10   ar
    24    10    11   ar
    25    11    12   ar
    26    12    13    1
    27    13    14    1
    28    14    15    1
    29    15    16    1
    30    16    17    1
    31     6     2    1
    32    12     7   ar
    33    17    15    1
    34    15     4    1
    35    25    20   ar
    36     1    18    1
    37     1    19    1
@<TRIPOS>MOLECULE
*****
 33 37 0 0 0
SMALL
GASTEIGER

@<TRIPOS>ATOM
      1 N         139.5162  145.6587  162.9536 N.pl3   1  UNL1       -0.3133
      2 C         140.2211  145.3493  161.6661 C.2     1  UNL1        0.2770
      3 N         141.3762  144.4074  161.4978 N.2     1  UNL1       -0.2204
      4 C         141.7635  144.4035  160.0486 C.3     1  UNL1        0.1537
      5 C         140.8478  145.3430  159.3215 C.3     1  UNL1        0.2350
      6 O         139.8945  145.9276  160.3211 O.2     1  UNL1       -0.4478
      7 C         142.6006  143.5014  160.9063 C.ar    1  UNL1        0.0355
      8 C         142.3291  143.4019  162.3782 C.ar    1  UNL1        0.0007
      9 C         143.1662  142.4998  163.2359 C.ar    1  UNL1        0.0015
     10 C         144.2746  141.6973  162.6218 C.ar    1  UNL1        0.0031
     11 C         144.5461  141.7968  161.1498 C.ar    1  UNL1        0.0366
     12 C         143.7090  142.6988  160.2922 C.ar    1  UNL1        0.1364
     13 O         143.9805  142.7984  158.8202 O.3     1  UNL1       -0.4756
     14 C         143.1434  143.7004  157.9626 C.3     1  UNL1        0.2074
     15 C         142.0350  144.5029  158.5767 C.3     1  UNL1        0.0666
     16 C         140.9117  145.4871  158.4361 C.3     1  UNL1        0.0061
     17 C         141.7084  145.0812  157.2317 C.3     1  UNL1        0.0061
     18 H         139.8054  145.2262  163.7894 H       1  UNL1        0.1466
     19 H         138.7644  146.2943  162.9628 H       1  UNL1        0.1466
     20 C         142.8947  142.4003  164.7078 C.ar    1  UNL1        0.0222
     21 C         143.9094  142.9002  165.6930 C.ar    1  UNL1        0.0991
     22 N         143.6379  142.8007  167.1649 N.ar    1  UNL1       -0.2391
     23 C         142.3518  142.2014  167.6515 C.ar    1  UNL1        0.1356
     24 C         141.3372  141.7015  166.6663 C.ar    1  UNL1        0.1579
     25 C         141.6087  141.8011  165.1944 C.ar    1  UNL1        0.0401
     26 O         140.0511  141.1023  167.1529 O.3     1  UNL1       -0.4678
     27 C         139.0663  140.5410  166.1705 C.3     1  UNL1        0.2773
     28 C         138.3926  139.2301  166.4496 C.3     1  UNL1        0.3634
     29 F         137.9572  139.1487  165.0166 F       1  UNL1       -0.1941
     30 F         138.8281  139.3114  167.8828 F       1  UNL1       -0.1941
     31 C         137.7190  137.9193  166.7288 C.3     1  UNL1        0.3820
     32 F         136.6757  137.8258  167.8024 F       1  UNL1       -0.1921
     33 F         138.0887  136.7018  165.9342 F       1  UNL1       -0.1921
@<TRIPOS>BOND
     1     1     2    1
     2     2     3    2
     3     3     4    1
     4     4     5    1
     5     5     6    1
     6     4     7    1
     7     7     8   ar
     8     8     9   ar
     9     9    20    1
    10    20    21   ar
    11    21    22   ar
    12    22    23   ar
    13    23    24   ar
    14    24    26    1
    15    26    27    1
    16    27    28    1
    17    28    29    1
    18    28    30    1
    19    28    31    1
    20    31    32    1
    21    31    33    1
    22    24    25   ar
    23     9    10   ar
    24    10    11   ar
    25    11    12   ar
    26    12    13    1
    27    13    14    1
    28    14    15    1
    29    15    16    1
    30    16    17    1
    31     6     2    1
    32    12     7   ar
    33    17    15    1
    34    15     4    1
    35    25    20   ar
    36     1    18    1
    37     1    19    1
@<TRIPOS>MOLECULE
*****
 33 37 0 0 0
SMALL
GASTEIGER

@<TRIPOS>ATOM
      1 N         143.2241  142.5131  164.8208 N.pl3   1  UNL1       -0.3133
      2 C         142.7379  142.2322  166.2119 C.2     1  UNL1        0.2770
      3 N         141.5415  141.4046  166.5773 N.2     1  UNL1       -0.2204
      4 C         141.4271  141.3905  168.0729 C.3     1  UNL1        0.1537
      5 C         142.5528  142.2095  168.6317 C.3     1  UNL1        0.2350
      6 O         143.3629  142.7296  167.4815 O.2     1  UNL1       -0.4478
      7 C         140.3584  140.6054  167.3718 C.ar    1  UNL1        0.0355
      8 C         140.3446  140.5289  165.8738 C.ar    1  UNL1        0.0007
      9 C         139.2759  139.7438  165.1727 C.ar    1  UNL1        0.0015
     10 C         138.2210  139.0352  165.9696 C.ar    1  UNL1        0.0031
     11 C         138.2348  139.1117  167.4676 C.ar    1  UNL1        0.0366
     12 C         139.3035  139.8968  168.1687 C.ar    1  UNL1        0.1364
     13 O         139.3172  139.9733  169.6667 O.3     1  UNL1       -0.4756
     14 C         140.3859  140.7584  170.3678 C.3     1  UNL1        0.2074
     15 C         141.4408  141.4670  169.5709 C.3     1  UNL1        0.0666
     16 C         142.6669  142.3294  169.5156 C.3     1  UNL1        0.0061
     17 C         142.0658  141.9645  170.8405 C.3     1  UNL1        0.0061
     18 H         142.7438  142.1398  164.0467 H       1  UNL1        0.1466
     19 H         144.0234  143.0707  164.6820 H       1  UNL1        0.1466
     20 C         139.2622  139.6673  163.6748 C.ar    1  UNL1        0.0222
     21 C         138.5356  138.5494  162.9875 C.ar    1  UNL1        0.0991
     22 N         138.5218  138.4729  161.4895 N.ar    1  UNL1       -0.2391
     23 C         139.2347  139.5143  160.6788 C.ar    1  UNL1        0.1356
     24 C         139.9613  140.6323  161.3660 C.ar    1  UNL1        0.1579
     25 C         139.9750  140.7087  162.8641 C.ar    1  UNL1        0.0401
     26 O         140.6741  141.6737  160.5553 O.3     1  UNL1       -0.4678
     27 C         141.2372  142.8910  161.2268 C.3     1  UNL1        0.2773
     28 C         142.7228  143.0729  161.3265 C.3     1  UNL1        0.3634
     29 F         142.5155  144.3644  162.0607 F       1  UNL1       -0.1941
     30 F         142.9303  141.7814  160.5923 F       1  UNL1       -0.1941
     31 C         144.2084  143.2547  161.4263 C.3     1  UNL1        0.3820
     32 F         144.7819  144.1999  162.4401 F       1  UNL1       -0.1921
     33 F         145.1205  142.4914  160.5123 F       1  UNL1       -0.1921
@<TRIPOS>BOND
     1     1     2    1
     2     2     3    2
     3     3     4    1
     4     4     5    1
     5     5     6    1
     6     4     7    1
     7     7     8   ar
     8     8     9   ar
     9     9    20    1
    10    20    21   ar
    11    21    22   ar
    12    22    23   ar
    13    23    24   ar
    14    24    26    1
    15    26    27    1
    16    27    28    1
    17    28    29    1
    18    28    30    1
    19    28    31    1
    20    31    32    1
    21    31    33    1
    22    24    25   ar
    23     9    10   ar
    24    10    11   ar
    25    11    12   ar
    26    12    13    1
    27    13    14    1
    28    14    15    1
    29    15    16    1
    30    16    17    1
    31     6     2    1
    32    12     7   ar
    33    17    15    1
    34    15     4    1
    35    25    20   ar
    36     1    18    1
    37     1    19    1
