@<TRIPOS>MOLECULE
*****
 42 47 0 0 0
SMALL
GASTEIGER

@<TRIPOS>ATOM
      1 C         138.8050  138.8909  165.8309 C.ar    1  UNL1        0.1658
      2 C         137.8284  138.6839  166.9504 C.ar    1  UNL1        0.1363
      3 N         138.1483  139.1860  168.3272 N.ar    1  UNL1       -0.2392
      4 C         139.4448  139.8951  168.5844 C.ar    1  UNL1        0.0975
      5 C         139.7647  140.3971  169.9613 C.ar    1  UNL1        0.0255
      6 C         141.0613  141.1062  170.2186 C.ar    1  UNL1        0.0623
      7 C         142.0379  141.3133  169.0990 C.ar    1  UNL1        0.2611
      8 O         143.3344  142.0224  169.3563 O.2     1  UNL1       -0.2670
      9 N         141.7180  140.8112  167.7222 N.ar    1  UNL1       -0.2926
     10 C         140.4215  140.1021  167.4650 C.ar    1  UNL1        0.0832
     11 C         140.1016  139.6000  166.0882 C.ar    1  UNL1        0.0579
     12 O         138.4852  138.3889  164.4540 O.3     1  UNL1       -0.4519
     13 C         138.5736  141.2135  160.9522 C.ar    1  UNL1        0.1219
     14 C         139.2955  139.9009  160.8753 C.ar    1  UNL1        0.0230
     15 C         139.2660  138.9593  162.0427 C.ar    1  UNL1        0.0389
     16 C         138.5147  139.3304  163.2868 C.ar    1  UNL1        0.1455
     17 C         137.7928  140.6431  163.3635 C.ar    1  UNL1        0.0389
     18 C         137.8223  141.5846  162.1962 C.ar    1  UNL1        0.0230
     19 N         138.6326  143.0967  158.6175 N.3     1  UNL1       -0.2035
     20 S         138.6031  142.1551  159.7849 S.O2    1  UNL1        0.0572
     21 O         138.9569  141.0161  158.8751 O.2     1  UNL1       -0.1532
     22 O         138.2494  143.2940  160.6946 O.2     1  UNL1       -0.1532
     23 H         138.8661  142.5799  157.7697 H       1  UNL1        0.1442
     24 H         139.3351  143.8181  158.7803 H       1  UNL1        0.1442
     25 C         142.6946  141.0182  166.6028 C.3     1  UNL1        0.1264
     26 C         143.0673  142.4083  166.1800 C.3     1  UNL1        0.0970
     27 N         142.8055  142.8602  164.7739 N.3     1  UNL1       -0.2710
     28 C         141.9205  142.0463  163.8770 C.3     1  UNL1        0.0728
     29 C         141.6586  142.4981  162.4709 C.3     1  UNL1        0.0298
     30 C         142.2818  143.7639  161.9615 C.3     1  UNL1        0.1147
     31 C         143.1668  144.5779  162.8583 C.3     1  UNL1        0.0298
     32 C         143.4286  144.1260  164.2645 C.3     1  UNL1        0.0728
     33 C         142.0199  144.2158  160.5554 C.2     1  UNL1        0.3507
     34 N         140.9797  145.2081  160.1275 N.2     1  UNL1       -0.0350
     35 C         141.0692  145.3603  158.6379 C.2     1  UNL1        0.2326
     36 C         140.2947  146.2007  157.6665 C.2     1  UNL1        0.0612
     37 C         140.6157  146.1428  156.2024 C.2     1  UNL1        0.0577
     38 CL        139.8411  146.9833  155.2309 Cl      1  UNL1       -0.0824
     39 C         141.7112  145.2445  155.7097 C.2     1  UNL1       -0.0058
     40 C         142.4857  144.4040  156.6811 C.3     1  UNL1        0.1046
     41 C         142.1647  144.4619  158.1452 C.2     1  UNL1        0.2175
     42 N         142.7523  143.7545  159.3303 N.2     1  UNL1       -0.0389
@<TRIPOS>BOND
     1    19    20    1
     2    20    21    2
     3    20    22    2
     4    20    13    1
     5    13    14   ar
     6    14    15   ar
     7    15    16   ar
     8    16    12    1
     9    12     1    1
    10     1     2   ar
    11     2     3   ar
    12     3     4   ar
    13     4     5   ar
    14     5     6   ar
    15     6     7   ar
    16     7     8    2
    17     7     9   ar
    18     9    25    1
    19    25    26    1
    20    26    27    1
    21    27    28    1
    22    28    29    1
    23    29    30    1
    24    30    33    1
    25    33    34    2
    26    34    35    1
    27    35    36    2
    28    36    37    1
    29    37    38    1
    30    37    39    2
    31    39    40    1
    32    40    41    1
    33    41    42    2
    34    30    31    1
    35    31    32    1
    36     9    10   ar
    37    10    11   ar
    38    16    17   ar
    39    17    18   ar
    40    18    13   ar
    41    11     1   ar
    42    10     4   ar
    43    32    27    1
    44    42    33    1
    45    41    35    1
    46    19    23    1
    47    19    24    1
@<TRIPOS>MOLECULE
*****
 42 47 0 0 0
SMALL
GASTEIGER

@<TRIPOS>ATOM
      1 C         138.6960  141.0473  159.9217 C.ar    1  UNL1        0.1658
      2 C         138.7038  142.4815  159.4825 C.ar    1  UNL1        0.1363
      3 N         139.7913  142.9835  158.5796 N.ar    1  UNL1       -0.2392
      4 C         140.8710  142.0512  158.1158 C.ar    1  UNL1        0.0975
      5 C         141.9586  142.5532  157.2128 C.ar    1  UNL1        0.0255
      6 C         143.0383  141.6209  156.7491 C.ar    1  UNL1        0.0623
      7 C         143.0304  140.1866  157.1883 C.ar    1  UNL1        0.2611
      8 O         144.1101  139.2543  156.7245 O.2     1  UNL1       -0.2670
      9 N         141.9429  139.6847  158.0912 N.ar    1  UNL1       -0.2926
     10 C         140.8632  140.6170  158.5550 C.ar    1  UNL1        0.0832
     11 C         139.7757  140.1150  159.4579 C.ar    1  UNL1        0.0579
     12 O         137.6084  140.5453  160.8247 O.3     1  UNL1       -0.4519
     13 C         138.4369  139.8971  165.1999 C.ar    1  UNL1        0.1219
     14 C         138.5552  138.7533  164.2367 C.ar    1  UNL1        0.0230
     15 C         138.2791  138.9694  162.7782 C.ar    1  UNL1        0.0389
     16 C         137.8846  140.3292  162.2831 C.ar    1  UNL1        0.1455
     17 C         137.7662  141.4730  163.2464 C.ar    1  UNL1        0.0389
     18 C         138.0424  141.2569  164.7048 C.ar    1  UNL1        0.0230
     19 N         138.9893  139.4649  168.1168 N.3     1  UNL1       -0.2035
     20 S         138.7131  139.6810  166.6583 S.O2    1  UNL1        0.0572
     21 O         137.9164  138.4106  166.6210 O.2     1  UNL1       -0.1532
     22 O         139.5097  140.9513  166.6957 O.2     1  UNL1       -0.1532
     23 H         138.5412  138.6015  168.4235 H       1  UNL1        0.1442
     24 H         138.6185  140.2494  168.6530 H       1  UNL1        0.1442
     25 C         141.9350  138.2504  158.5304 C.3     1  UNL1        0.1264
     26 C         142.9586  137.7609  159.5115 C.3     1  UNL1        0.0970
     27 N         142.9307  138.2477  160.9301 N.3     1  UNL1       -0.2710
     28 C         143.9322  139.2634  161.3943 C.3     1  UNL1        0.0728
     29 C         143.9044  139.7502  162.8128 C.3     1  UNL1        0.0298
     30 C         142.8750  139.2214  163.7672 C.3     1  UNL1        0.1147
     31 C         141.8735  138.2058  163.3030 C.3     1  UNL1        0.0298
     32 C         141.9014  137.7190  161.8844 C.3     1  UNL1        0.0728
     33 C         142.8472  139.7083  165.1857 C.2     1  UNL1        0.3507
     34 N         143.0583  141.1233  165.6365 N.2     1  UNL1       -0.0350
     35 C         142.9449  141.1552  167.1319 C.2     1  UNL1        0.2326
     36 C         143.0614  142.2744  168.1236 C.2     1  UNL1        0.0612
     37 C         142.8967  141.9984  169.5888 C.2     1  UNL1        0.0577
     38 CL        143.0132  143.1176  170.5806 Cl      1  UNL1       -0.0824
     39 C         142.6155  140.6031  170.0622 C.2     1  UNL1       -0.0058
     40 C         142.4991  139.4838  169.0704 C.3     1  UNL1        0.1046
     41 C         142.6638  139.7598  167.6052 C.2     1  UNL1        0.2175
     42 N         142.6033  138.8656  166.4024 N.2     1  UNL1       -0.0389
@<TRIPOS>BOND
     1    19    20    1
     2    20    21    2
     3    20    22    2
     4    20    13    1
     5    13    14   ar
     6    14    15   ar
     7    15    16   ar
     8    16    12    1
     9    12     1    1
    10     1     2   ar
    11     2     3   ar
    12     3     4   ar
    13     4     5   ar
    14     5     6   ar
    15     6     7   ar
    16     7     8    2
    17     7     9   ar
    18     9    25    1
    19    25    26    1
    20    26    27    1
    21    27    28    1
    22    28    29    1
    23    29    30    1
    24    30    33    1
    25    33    34    2
    26    34    35    1
    27    35    36    2
    28    36    37    1
    29    37    38    1
    30    37    39    2
    31    39    40    1
    32    40    41    1
    33    41    42    2
    34    30    31    1
    35    31    32    1
    36     9    10   ar
    37    10    11   ar
    38    16    17   ar
    39    17    18   ar
    40    18    13   ar
    41    11     1   ar
    42    10     4   ar
    43    32    27    1
    44    42    33    1
    45    41    35    1
    46    19    23    1
    47    19    24    1
@<TRIPOS>MOLECULE
*****
 42 47 0 0 0
SMALL
GASTEIGER

@<TRIPOS>ATOM
      1 C         144.4469  142.1007  159.0578 C.ar    1  UNL1        0.1658
      2 C         145.3921  142.5778  157.9953 C.ar    1  UNL1        0.1363
      3 N         145.5759  141.7769  156.7404 N.ar    1  UNL1       -0.2392
      4 C         144.8144  140.4990  156.5479 C.ar    1  UNL1        0.0975
      5 C         144.9982  139.6982  155.2929 C.ar    1  UNL1        0.0255
      6 C         144.2367  138.4203  155.1005 C.ar    1  UNL1        0.0623
      7 C         143.2914  137.9432  156.1630 C.ar    1  UNL1        0.2611
      8 O         142.5299  136.6653  155.9705 O.2     1  UNL1       -0.2670
      9 N         143.1076  138.7441  157.4179 N.ar    1  UNL1       -0.2926
     10 C         143.8691  140.0220  157.6104 C.ar    1  UNL1        0.0832
     11 C         143.6854  140.8228  158.8653 C.ar    1  UNL1        0.0579
     12 O         144.2630  142.9016  160.3128 O.3     1  UNL1       -0.4519
     13 C         140.1214  143.7450  161.8573 C.ar    1  UNL1        0.1219
     14 C         141.0162  142.7915  162.5922 C.ar    1  UNL1        0.0230
     15 C         142.3968  142.5103  162.0774 C.ar    1  UNL1        0.0389
     16 C         142.8825  143.1827  160.8276 C.ar    1  UNL1        0.1455
     17 C         141.9877  144.1362  160.0926 C.ar    1  UNL1        0.0389
     18 C         140.6072  144.4174  160.6075 C.ar    1  UNL1        0.0230
     19 N         137.3603  144.3073  162.8870 N.3     1  UNL1       -0.2035
     20 S         138.7409  144.0261  162.3721 S.O2    1  UNL1        0.0572
     21 O         138.1587  143.2089  161.2572 O.2     1  UNL1       -0.1532
     22 O         139.3231  144.8433  163.4870 O.2     1  UNL1       -0.1532
     23 H         136.6741  143.8471  162.2889 H       1  UNL1        0.1442
     24 H         137.1944  145.3137  162.8829 H       1  UNL1        0.1442
     25 C         142.1623  138.2670  158.4803 C.3     1  UNL1        0.1264
     26 C         142.6676  137.4133  159.6054 C.3     1  UNL1        0.0970
     27 N         142.6790  137.9489  161.0066 N.3     1  UNL1       -0.2710
     28 C         141.4082  137.9953  161.8021 C.3     1  UNL1        0.0728
     29 C         141.4196  138.5309  163.2031 C.3     1  UNL1        0.0298
     30 C         142.7019  139.0200  163.8087 C.3     1  UNL1        0.1147
     31 C         143.9727  138.9735  163.0132 C.3     1  UNL1        0.0298
     32 C         143.9612  138.4379  161.6121 C.3     1  UNL1        0.0728
     33 C         142.7133  139.5555  165.2098 C.2     1  UNL1        0.3507
     34 N         142.8657  140.9953  165.6022 N.2     1  UNL1       -0.0350
     35 C         142.8208  141.0749  167.0994 C.2     1  UNL1        0.2326
     36 C         142.9207  142.2339  168.0463 C.2     1  UNL1        0.0612
     37 C         142.8405  142.0025  169.5262 C.2     1  UNL1        0.0577
     38 CL        142.9405  143.1615  170.4731 Cl      1  UNL1       -0.0824
     39 C         142.6604  140.6120  170.0591 C.2     1  UNL1       -0.0058
     40 C         142.5605  139.4529  169.1122 C.3     1  UNL1        0.1046
     41 C         142.6407  139.6844  167.6323 C.2     1  UNL1        0.2175
     42 N         142.5742  138.7454  166.4645 N.2     1  UNL1       -0.0389
@<TRIPOS>BOND
     1    19    20    1
     2    20    21    2
     3    20    22    2
     4    20    13    1
     5    13    14   ar
     6    14    15   ar
     7    15    16   ar
     8    16    12    1
     9    12     1    1
    10     1     2   ar
    11     2     3   ar
    12     3     4   ar
    13     4     5   ar
    14     5     6   ar
    15     6     7   ar
    16     7     8    2
    17     7     9   ar
    18     9    25    1
    19    25    26    1
    20    26    27    1
    21    27    28    1
    22    28    29    1
    23    29    30    1
    24    30    33    1
    25    33    34    2
    26    34    35    1
    27    35    36    2
    28    36    37    1
    29    37    38    1
    30    37    39    2
    31    39    40    1
    32    40    41    1
    33    41    42    2
    34    30    31    1
    35    31    32    1
    36     9    10   ar
    37    10    11   ar
    38    16    17   ar
    39    17    18   ar
    40    18    13   ar
    41    11     1   ar
    42    10     4   ar
    43    32    27    1
    44    42    33    1
    45    41    35    1
    46    19    23    1
    47    19    24    1
@<TRIPOS>MOLECULE
*****
 42 47 0 0 0
SMALL
GASTEIGER

@<TRIPOS>ATOM
      1 C         143.2738  142.7906  164.5575 C.ar    1  UNL1        0.1658
      2 C         144.0966  143.5333  163.5468 C.ar    1  UNL1        0.1363
      3 N         143.4252  144.4081  162.5300 N.ar    1  UNL1       -0.2392
      4 C         141.9310  144.5403  162.5240 C.ar    1  UNL1        0.0975
      5 C         141.2596  145.4152  161.5072 C.ar    1  UNL1        0.0255
      6 C         139.7655  145.5474  161.5011 C.ar    1  UNL1        0.0623
      7 C         138.9427  144.8048  162.5119 C.ar    1  UNL1        0.2611
      8 O         137.4486  144.9370  162.5059 O.2     1  UNL1       -0.2670
      9 N         139.6141  143.9299  163.5287 N.ar    1  UNL1       -0.2926
     10 C         141.1083  143.7977  163.5347 C.ar    1  UNL1        0.0832
     11 C         141.7797  142.9229  164.5514 C.ar    1  UNL1        0.0579
     12 O         143.9452  141.9157  165.5743 O.3     1  UNL1       -0.4519
     13 C         141.8564  140.9491  169.4411 C.ar    1  UNL1        0.1219
     14 C         142.6695  142.2039  169.3213 C.ar    1  UNL1        0.0230
     15 C         143.3658  142.5261  168.0323 C.ar    1  UNL1        0.0389
     16 C         143.2490  141.5936  166.8632 C.ar    1  UNL1        0.1455
     17 C         142.4358  140.3387  166.9832 C.ar    1  UNL1        0.0389
     18 C         141.7396  140.0165  168.2721 C.ar    1  UNL1        0.0230
     19 N         140.4638  140.3047  172.0190 N.3     1  UNL1       -0.2035
     20 S         141.1602  140.6269  170.7301 S.O2    1  UNL1        0.0572
     21 O         141.9325  141.7128  171.4187 O.2     1  UNL1       -0.1532
     22 O         140.3878  139.5410  170.0414 O.2     1  UNL1       -0.1532
     23 H         140.8012  140.9278  172.7527 H       1  UNL1        0.1442
     24 H         140.6587  139.3376  172.2782 H       1  UNL1        0.1442
     25 C         138.7914  143.1873  164.5394 C.3     1  UNL1        0.1264
     26 C         138.1667  141.8724  164.1778 C.3     1  UNL1        0.0970
     27 N         138.6409  141.1245  162.9671 N.3     1  UNL1       -0.2710
     28 C         137.8867  141.2336  161.6751 C.3     1  UNL1        0.0728
     29 C         138.3608  140.4857  160.4644 C.3     1  UNL1        0.0298
     30 C         139.5892  139.6287  160.5456 C.3     1  UNL1        0.1147
     31 C         140.3434  139.5196  161.8376 C.3     1  UNL1        0.0298
     32 C         139.8692  140.2675  163.0484 C.3     1  UNL1        0.0728
     33 C         140.0634  138.8808  159.3349 C.2     1  UNL1        0.3507
     34 N         141.4545  138.3698  159.1030 N.2     1  UNL1       -0.0350
     35 C         141.4805  137.6858  157.7683 C.2     1  UNL1        0.2326
     36 C         142.5786  136.9940  157.0163 C.2     1  UNL1        0.0612
     37 C         142.3017  136.3904  155.6713 C.2     1  UNL1        0.0577
     38 CL        143.3998  135.6986  154.9193 Cl      1  UNL1       -0.0824
     39 C         140.9268  136.4786  155.0783 C.2     1  UNL1       -0.0058
     40 C         139.8286  137.1704  155.8304 C.3     1  UNL1        0.1046
     41 C         140.1055  137.7740  157.1754 C.2     1  UNL1        0.2175
     42 N         139.2297  138.5126  158.1436 N.2     1  UNL1       -0.0389
@<TRIPOS>BOND
     1    19    20    1
     2    20    21    2
     3    20    22    2
     4    20    13    1
     5    13    14   ar
     6    14    15   ar
     7    15    16   ar
     8    16    12    1
     9    12     1    1
    10     1     2   ar
    11     2     3   ar
    12     3     4   ar
    13     4     5   ar
    14     5     6   ar
    15     6     7   ar
    16     7     8    2
    17     7     9   ar
    18     9    25    1
    19    25    26    1
    20    26    27    1
    21    27    28    1
    22    28    29    1
    23    29    30    1
    24    30    33    1
    25    33    34    2
    26    34    35    1
    27    35    36    2
    28    36    37    1
    29    37    38    1
    30    37    39    2
    31    39    40    1
    32    40    41    1
    33    41    42    2
    34    30    31    1
    35    31    32    1
    36     9    10   ar
    37    10    11   ar
    38    16    17   ar
    39    17    18   ar
    40    18    13   ar
    41    11     1   ar
    42    10     4   ar
    43    32    27    1
    44    42    33    1
    45    41    35    1
    46    19    23    1
    47    19    24    1
@<TRIPOS>MOLECULE
*****
 42 47 0 0 0
SMALL
GASTEIGER

@<TRIPOS>ATOM
      1 C         139.1800  138.6466  165.3737 C.ar    1  UNL1        0.1658
      2 C         138.0577  138.4579  166.3508 C.ar    1  UNL1        0.1363
      3 N         138.1474  139.0608  167.7214 N.ar    1  UNL1       -0.2392
      4 C         139.3593  139.8523  168.1148 C.ar    1  UNL1        0.0975
      5 C         139.4489  140.4552  169.4854 C.ar    1  UNL1        0.0255
      6 C         140.6608  141.2467  169.8788 C.ar    1  UNL1        0.0623
      7 C         141.7831  141.4354  168.9016 C.ar    1  UNL1        0.2611
      8 O         142.9951  142.2269  169.2950 O.2     1  UNL1       -0.2670
      9 N         141.6935  140.8325  167.5310 N.ar    1  UNL1       -0.2926
     10 C         140.4816  140.0410  167.1376 C.ar    1  UNL1        0.0832
     11 C         140.3919  139.4381  165.7671 C.ar    1  UNL1        0.0579
     12 O         139.0904  138.0437  164.0030 O.3     1  UNL1       -0.4519
     13 C         142.0974  139.1677  160.8496 C.ar    1  UNL1        0.1219
     14 C         140.9226  140.0609  161.1180 C.ar    1  UNL1        0.0230
     15 C         139.9202  139.6863  162.1692 C.ar    1  UNL1        0.0389
     16 C         140.0927  138.4184  162.9519 C.ar    1  UNL1        0.1455
     17 C         141.2675  137.5251  162.6835 C.ar    1  UNL1        0.0389
     18 C         142.2698  137.8998  161.6323 C.ar    1  UNL1        0.0230
     19 N         144.1021  139.9171  158.7472 N.3     1  UNL1       -0.2035
     20 S         143.0997  139.5424  159.7984 S.O2    1  UNL1        0.0572
     21 O         142.1229  140.5201  159.2155 O.2     1  UNL1       -0.1532
     22 O         144.0765  138.5647  160.3813 O.2     1  UNL1       -0.1532
     23 H         143.7030  140.6289  158.1352 H       1  UNL1        0.1442
     24 H         144.3428  139.0923  158.1976 H       1  UNL1        0.1442
     25 C         142.8158  141.0211  166.5539 C.3     1  UNL1        0.1264
     26 C         143.2077  142.4022  166.1194 C.3     1  UNL1        0.0970
     27 N         142.9132  142.8607  164.7218 N.3     1  UNL1       -0.2710
     28 C         144.0394  143.1964  163.7896 C.3     1  UNL1        0.0728
     29 C         143.7450  143.6549  162.3921 C.3     1  UNL1        0.0298
     30 C         142.3243  143.7776  161.9267 C.3     1  UNL1        0.1147
     31 C         141.1980  143.4419  162.8589 C.3     1  UNL1        0.0298
     32 C         141.4926  142.9834  164.2565 C.3     1  UNL1        0.0728
     33 C         142.0298  144.2360  160.5292 C.2     1  UNL1        0.3507
     34 N         142.7896  143.8479  159.2955 N.2     1  UNL1       -0.0350
     35 C         142.1532  144.5351  158.1238 C.2     1  UNL1        0.2326
     36 C         142.4748  144.5258  156.6587 C.2     1  UNL1        0.0612
     37 C         141.6432  145.3292  155.7032 C.2     1  UNL1        0.0577
     38 CL        141.9647  145.3198  154.2381 Cl      1  UNL1       -0.0824
     39 C         140.4901  146.1420  156.2128 C.2     1  UNL1       -0.0058
     40 C         140.1685  146.1514  157.6779 C.3     1  UNL1        0.1046
     41 C         141.0001  145.3479  158.6334 C.2     1  UNL1        0.2175
     42 N         140.9238  145.1631  160.1200 N.2     1  UNL1       -0.0389
@<TRIPOS>BOND
     1    19    20    1
     2    20    21    2
     3    20    22    2
     4    20    13    1
     5    13    14   ar
     6    14    15   ar
     7    15    16   ar
     8    16    12    1
     9    12     1    1
    10     1     2   ar
    11     2     3   ar
    12     3     4   ar
    13     4     5   ar
    14     5     6   ar
    15     6     7   ar
    16     7     8    2
    17     7     9   ar
    18     9    25    1
    19    25    26    1
    20    26    27    1
    21    27    28    1
    22    28    29    1
    23    29    30    1
    24    30    33    1
    25    33    34    2
    26    34    35    1
    27    35    36    2
    28    36    37    1
    29    37    38    1
    30    37    39    2
    31    39    40    1
    32    40    41    1
    33    41    42    2
    34    30    31    1
    35    31    32    1
    36     9    10   ar
    37    10    11   ar
    38    16    17   ar
    39    17    18   ar
    40    18    13   ar
    41    11     1   ar
    42    10     4   ar
    43    32    27    1
    44    42    33    1
    45    41    35    1
    46    19    23    1
    47    19    24    1
@<TRIPOS>MOLECULE
*****
 42 47 0 0 0
SMALL
GASTEIGER

@<TRIPOS>ATOM
      1 C         143.0185  138.8452  165.3091 C.ar    1  UNL1        0.1658
      2 C         143.8553  138.0291  166.2491 C.ar    1  UNL1        0.1363
      3 N         143.6538  138.1504  167.7305 N.ar    1  UNL1       -0.2392
      4 C         142.6154  139.0879  168.2719 C.ar    1  UNL1        0.0975
      5 C         142.4139  139.2092  169.7534 C.ar    1  UNL1        0.0255
      6 C         141.3756  140.1466  170.2947 C.ar    1  UNL1        0.0623
      7 C         140.5388  140.9628  169.3546 C.ar    1  UNL1        0.2611
      8 O         139.5005  141.9002  169.8960 O.2     1  UNL1       -0.2670
      9 N         140.7404  140.8415  167.8732 N.ar    1  UNL1       -0.2926
     10 C         141.7787  139.9040  167.3318 C.ar    1  UNL1        0.0832
     11 C         141.9802  139.7827  165.8504 C.ar    1  UNL1        0.0579
     12 O         143.2201  138.7239  163.8276 O.3     1  UNL1       -0.4519
     13 C         139.7847  139.4776  161.0204 C.ar    1  UNL1        0.1219
     14 C         140.8404  140.5258  161.2121 C.ar    1  UNL1        0.0230
     15 C         141.9856  140.2746  162.1479 C.ar    1  UNL1        0.0389
     16 C         142.0750  138.9752  162.8918 C.ar    1  UNL1        0.1455
     17 C         141.0192  137.9270  162.7001 C.ar    1  UNL1        0.0389
     18 C         139.8741  138.1782  161.7643 C.ar    1  UNL1        0.0230
     19 N         137.4945  139.9802  159.1489 N.3     1  UNL1       -0.2035
     20 S         138.6397  139.7289  160.0846 S.O2    1  UNL1        0.0572
     21 O         139.3605  138.9819  159.0019 O.2     1  UNL1       -0.1532
     22 O         137.9188  140.4759  161.1674 O.2     1  UNL1       -0.1532
     23 H         137.6971  139.5582  158.2426 H       1  UNL1        0.1442
     24 H         137.3633  140.9852  159.0343 H       1  UNL1        0.1442
     25 C         139.9036  141.6576  166.9332 C.3     1  UNL1        0.1264
     26 C         140.3239  143.0516  166.5725 C.3     1  UNL1        0.0970
     27 N         140.4653  143.4431  165.1314 N.3     1  UNL1       -0.2710
     28 C         141.8069  143.3750  164.4639 C.3     1  UNL1        0.0728
     29 C         141.9484  143.7665  163.0228 C.3     1  UNL1        0.0298
     30 C         140.7483  144.2260  162.2492 C.3     1  UNL1        0.1147
     31 C         139.4067  144.2941  162.9166 C.3     1  UNL1        0.0298
     32 C         139.2652  143.9026  164.3578 C.3     1  UNL1        0.0728
     33 C         140.8897  144.6175  160.8081 C.2     1  UNL1        0.3507
     34 N         139.9176  145.4438  160.0194 N.2     1  UNL1       -0.0350
     35 C         140.4552  145.5884  158.6265 C.2     1  UNL1        0.2326
     36 C         139.9255  146.2959  157.4146 C.2     1  UNL1        0.0612
     37 C         140.7003  146.2665  156.1305 C.2     1  UNL1        0.0577
     38 CL        140.1707  146.9739  154.9186 Cl      1  UNL1       -0.0824
     39 C         142.0048  145.5295  156.0584 C.2     1  UNL1       -0.0058
     40 C         142.5345  144.8220  157.2704 C.3     1  UNL1        0.1046
     41 C         141.7597  144.8514  158.5545 C.2     1  UNL1        0.2175
     42 N         142.0283  144.2514  159.9027 N.2     1  UNL1       -0.0389
@<TRIPOS>BOND
     1    19    20    1
     2    20    21    2
     3    20    22    2
     4    20    13    1
     5    13    14   ar
     6    14    15   ar
     7    15    16   ar
     8    16    12    1
     9    12     1    1
    10     1     2   ar
    11     2     3   ar
    12     3     4   ar
    13     4     5   ar
    14     5     6   ar
    15     6     7   ar
    16     7     8    2
    17     7     9   ar
    18     9    25    1
    19    25    26    1
    20    26    27    1
    21    27    28    1
    22    28    29    1
    23    29    30    1
    24    30    33    1
    25    33    34    2
    26    34    35    1
    27    35    36    2
    28    36    37    1
    29    37    38    1
    30    37    39    2
    31    39    40    1
    32    40    41    1
    33    41    42    2
    34    30    31    1
    35    31    32    1
    36     9    10   ar
    37    10    11   ar
    38    16    17   ar
    39    17    18   ar
    40    18    13   ar
    41    11     1   ar
    42    10     4   ar
    43    32    27    1
    44    42    33    1
    45    41    35    1
    46    19    23    1
    47    19    24    1
@<TRIPOS>MOLECULE
*****
 42 47 0 0 0
SMALL
GASTEIGER

@<TRIPOS>ATOM
      1 C         139.2719  140.3976  159.0181 C.ar    1  UNL1        0.1658
      2 C         140.1445  139.5257  158.1647 C.ar    1  UNL1        0.1363
      3 N         141.2994  140.1232  157.4170 N.ar    1  UNL1       -0.2392
      4 C         141.5817  141.5926  157.5227 C.ar    1  UNL1        0.0975
      5 C         142.7367  142.1902  156.7749 C.ar    1  UNL1        0.0255
      6 C         143.0190  143.6596  156.8807 C.ar    1  UNL1        0.0623
      7 C         142.1463  144.5314  157.7342 C.ar    1  UNL1        0.2611
      8 O         142.4286  146.0008  157.8400 O.2     1  UNL1       -0.2670
      9 N         140.9914  143.9339  158.4819 N.ar    1  UNL1       -0.2926
     10 C         140.7091  142.4645  158.3762 C.ar    1  UNL1        0.0832
     11 C         139.5542  141.8670  159.1239 C.ar    1  UNL1        0.0579
     12 O         138.1169  139.8000  159.7659 O.3     1  UNL1       -0.4519
     13 C         138.3885  139.1968  164.2170 C.ar    1  UNL1        0.1219
     14 C         137.9653  140.5256  163.6647 C.ar    1  UNL1        0.0230
     15 C         137.8748  140.7267  162.1810 C.ar    1  UNL1        0.0389
     16 C         138.2075  139.5990  161.2496 C.ar    1  UNL1        0.1455
     17 C         138.6307  138.2701  161.8020 C.ar    1  UNL1        0.0389
     18 C         138.7213  138.0690  163.2856 C.ar    1  UNL1        0.0230
     19 N         138.5696  138.7946  167.1844 N.3     1  UNL1       -0.2035
     20 S         138.4791  138.9957  165.7007 S.O2    1  UNL1        0.0572
     21 O         138.2954  140.4694  165.9116 O.2     1  UNL1       -0.1532
     22 O         138.6627  137.5221  165.4898 O.2     1  UNL1       -0.1532
     23 H         138.4724  139.6938  167.6560 H       1  UNL1        0.1442
     24 H         139.4740  138.3846  167.4174 H       1  UNL1        0.1442
     25 C         140.1189  144.8057  159.3354 C.3     1  UNL1        0.1264
     26 C         140.6828  145.4601  160.5617 C.3     1  UNL1        0.0970
     27 N         140.8264  144.6751  161.8319 N.3     1  UNL1       -0.2710
     28 C         139.8000  144.8107  162.9173 C.3     1  UNL1        0.0728
     29 C         139.9436  144.0258  164.1875 C.3     1  UNL1        0.0298
     30 C         141.1135  143.1053  164.3722 C.3     1  UNL1        0.1147
     31 C         142.1399  142.9698  163.2868 C.3     1  UNL1        0.0298
     32 C         141.9963  143.7547  162.0166 C.3     1  UNL1        0.0728
     33 C         141.2570  142.3205  165.6424 C.2     1  UNL1        0.3507
     34 N         142.1427  141.1271  165.8461 N.2     1  UNL1       -0.0350
     35 C         141.9732  140.6602  167.2615 C.2     1  UNL1        0.2326
     36 C         142.5927  139.5281  168.0259 C.2     1  UNL1        0.0612
     37 C         142.2217  139.3008  169.4615 C.2     1  UNL1        0.0577
     38 CL        142.8412  138.1687  170.2260 Cl      1  UNL1       -0.0824
     39 C         141.2313  140.2056  170.1325 C.2     1  UNL1       -0.0058
     40 C         140.6117  141.3378  169.3680 C.3     1  UNL1        0.1046
     41 C         140.9827  141.5651  167.9325 C.2     1  UNL1        0.2175
     42 N         140.5401  142.5911  166.9318 N.2     1  UNL1       -0.0389
@<TRIPOS>BOND
     1    19    20    1
     2    20    21    2
     3    20    22    2
     4    20    13    1
     5    13    14   ar
     6    14    15   ar
     7    15    16   ar
     8    16    12    1
     9    12     1    1
    10     1     2   ar
    11     2     3   ar
    12     3     4   ar
    13     4     5   ar
    14     5     6   ar
    15     6     7   ar
    16     7     8    2
    17     7     9   ar
    18     9    25    1
    19    25    26    1
    20    26    27    1
    21    27    28    1
    22    28    29    1
    23    29    30    1
    24    30    33    1
    25    33    34    2
    26    34    35    1
    27    35    36    2
    28    36    37    1
    29    37    38    1
    30    37    39    2
    31    39    40    1
    32    40    41    1
    33    41    42    2
    34    30    31    1
    35    31    32    1
    36     9    10   ar
    37    10    11   ar
    38    16    17   ar
    39    17    18   ar
    40    18    13   ar
    41    11     1   ar
    42    10     4   ar
    43    32    27    1
    44    42    33    1
    45    41    35    1
    46    19    23    1
    47    19    24    1
@<TRIPOS>MOLECULE
*****
 42 47 0 0 0
SMALL
GASTEIGER

@<TRIPOS>ATOM
      1 C         140.5632  145.0732  158.1966 C.ar    1  UNL1        0.1658
      2 C         140.1845  146.0471  157.1205 C.ar    1  UNL1        0.1363
      3 N         139.2943  145.6118  155.9945 N.ar    1  UNL1       -0.2392
      4 C         138.7826  144.2026  155.9446 C.ar    1  UNL1        0.0975
      5 C         137.8923  143.7673  154.8186 C.ar    1  UNL1        0.0255
      6 C         137.3807  142.3582  154.7688 C.ar    1  UNL1        0.0623
      7 C         137.7594  141.3843  155.8450 C.ar    1  UNL1        0.2611
      8 O         137.2478  139.9751  155.7952 O.2     1  UNL1       -0.2670
      9 N         138.6497  141.8196  156.9710 N.ar    1  UNL1       -0.2926
     10 C         139.1613  143.2287  157.0208 C.ar    1  UNL1        0.0832
     11 C         140.0516  143.6640  158.1468 C.ar    1  UNL1        0.0579
     12 O         141.4535  145.5085  159.3227 O.3     1  UNL1       -0.4519
     13 C         140.5046  144.2780  163.5459 C.ar    1  UNL1        0.1219
     14 C         139.6879  145.3410  162.8730 C.ar    1  UNL1        0.0230
     15 C         140.0041  145.7512  161.4652 C.ar    1  UNL1        0.0389
     16 C         141.1372  145.0983  160.7304 C.ar    1  UNL1        0.1455
     17 C         141.9540  144.0353  161.4034 C.ar    1  UNL1        0.0389
     18 C         141.6377  143.6251  162.8111 C.ar    1  UNL1        0.0230
     19 N         139.8721  143.4576  166.3614 N.3     1  UNL1       -0.2035
     20 S         140.1883  143.8678  164.9536 S.O2    1  UNL1        0.0572
     21 O         138.8483  144.5332  164.8463 O.2     1  UNL1       -0.1532
     22 O         141.5284  143.2024  165.0608 O.2     1  UNL1       -0.1532
     23 H         138.9412  143.7912  166.6117 H       1  UNL1        0.1442
     24 H         140.5604  143.8621  166.9962 H       1  UNL1        0.1442
     25 C         139.0283  140.8457  158.0471 C.3     1  UNL1        0.1264
     26 C         138.0548  140.5208  159.1410 C.3     1  UNL1        0.0970
     27 N         138.5285  140.4180  160.5606 N.3     1  UNL1       -0.2710
     28 C         139.8174  139.7167  160.8722 C.3     1  UNL1        0.0728
     29 C         140.2912  139.6139  162.2916 C.3     1  UNL1        0.0298
     30 C         139.4761  140.2124  163.3996 C.3     1  UNL1        0.1147
     31 C         138.1873  140.9138  163.0880 C.3     1  UNL1        0.0298
     32 C         137.7135  141.0165  161.6685 C.3     1  UNL1        0.0728
     33 C         139.9499  140.1096  164.8190 C.2     1  UNL1        0.3507
     34 N         139.1186  140.3446  166.0453 N.2     1  UNL1       -0.0350
     35 C         139.9931  140.1340  167.2456 C.2     1  UNL1        0.2326
     36 C         139.7175  140.2275  168.7171 C.2     1  UNL1        0.0612
     37 C         140.8138  139.9559  169.7042 C.2     1  UNL1        0.0577
     38 CL        140.5383  140.0494  171.1757 Cl      1  UNL1       -0.0824
     39 C         142.1857  139.5907  169.2198 C.2     1  UNL1       -0.0058
     40 C         142.4613  139.4972  167.7483 C.3     1  UNL1        0.1046
     41 C         141.3650  139.7688  166.7612 C.2     1  UNL1        0.2175
     42 N         141.3383  139.7537  165.2615 N.2     1  UNL1       -0.0389
@<TRIPOS>BOND
     1    19    20    1
     2    20    21    2
     3    20    22    2
     4    20    13    1
     5    13    14   ar
     6    14    15   ar
     7    15    16   ar
     8    16    12    1
     9    12     1    1
    10     1     2   ar
    11     2     3   ar
    12     3     4   ar
    13     4     5   ar
    14     5     6   ar
    15     6     7   ar
    16     7     8    2
    17     7     9   ar
    18     9    25    1
    19    25    26    1
    20    26    27    1
    21    27    28    1
    22    28    29    1
    23    29    30    1
    24    30    33    1
    25    33    34    2
    26    34    35    1
    27    35    36    2
    28    36    37    1
    29    37    38    1
    30    37    39    2
    31    39    40    1
    32    40    41    1
    33    41    42    2
    34    30    31    1
    35    31    32    1
    36     9    10   ar
    37    10    11   ar
    38    16    17   ar
    39    17    18   ar
    40    18    13   ar
    41    11     1   ar
    42    10     4   ar
    43    32    27    1
    44    42    33    1
    45    41    35    1
    46    19    23    1
    47    19    24    1
@<TRIPOS>MOLECULE
*****
 42 47 0 0 0
SMALL
GASTEIGER

@<TRIPOS>ATOM
      1 C         143.2860  142.0229  157.4024 C.ar    1  UNL1        0.1658
      2 C         144.0820  142.2377  156.1493 C.ar    1  UNL1        0.1363
      3 N         144.4982  141.0630  155.3146 N.ar    1  UNL1       -0.2392
      4 C         144.1184  139.6735  155.7329 C.ar    1  UNL1        0.0975
      5 C         144.5346  138.4987  154.8981 C.ar    1  UNL1        0.0255
      6 C         144.1548  137.1092  155.3164 C.ar    1  UNL1        0.0623
      7 C         143.3588  136.8944  156.5696 C.ar    1  UNL1        0.2611
      8 O         142.9790  135.5049  156.9879 O.2     1  UNL1       -0.2670
      9 N         142.9426  138.0691  157.4043 N.ar    1  UNL1       -0.2926
     10 C         143.3224  139.4586  156.9860 C.ar    1  UNL1        0.0832
     11 C         142.9062  140.6333  157.8207 C.ar    1  UNL1        0.0579
     12 O         142.8698  143.1976  158.2372 O.3     1  UNL1       -0.4519
     13 C         143.8842  143.3158  162.6197 C.ar    1  UNL1        0.1219
     14 C         144.8286  142.6719  161.6485 C.ar    1  UNL1        0.0230
     15 C         144.4905  142.6324  160.1875 C.ar    1  UNL1        0.0389
     16 C         143.2079  143.2370  159.6980 C.ar    1  UNL1        0.1455
     17 C         142.2635  143.8809  160.6694 C.ar    1  UNL1        0.0389
     18 C         142.6017  143.9203  162.1302 C.ar    1  UNL1        0.0230
     19 N         144.5606  143.3945  165.5415 N.3     1  UNL1       -0.2035
     20 S         144.2224  143.3552  164.0806 S.O2    1  UNL1        0.0572
     21 O         143.0794  144.2966  164.3198 O.2     1  UNL1       -0.1532
     22 O         145.3654  142.4137  163.8414 O.2     1  UNL1       -0.1532
     23 H         143.9045  144.0070  166.0260 H       1  UNL1        0.1442
     24 H         145.5093  143.7497  165.6614 H       1  UNL1        0.1442
     25 C         142.1466  137.8543  158.6574 C.3     1  UNL1        0.1264
     26 C         142.8298  137.3901  159.9095 C.3     1  UNL1        0.0970
     27 N         142.6506  138.1531  161.1886 N.3     1  UNL1       -0.2710
     28 C         143.8500  138.5773  161.9831 C.3     1  UNL1        0.0728
     29 C         143.6709  139.3402  163.2621 C.3     1  UNL1        0.0298
     30 C         142.2922  139.6790  163.7466 C.3     1  UNL1        0.1147
     31 C         141.0928  139.2548  162.9520 C.3     1  UNL1        0.0298
     32 C         141.2720  138.4918  161.6729 C.3     1  UNL1        0.0728
     33 C         142.1131  140.4419  165.0255 C.2     1  UNL1        0.3507
     34 N         143.1138  140.5451  166.1382 N.2     1  UNL1       -0.0350
     35 C         142.5210  141.4026  167.2168 C.2     1  UNL1        0.2326
     36 C         143.0494  141.8500  168.5474 C.2     1  UNL1        0.0612
     37 C         142.2107  142.7240  169.4320 C.2     1  UNL1        0.0577
     38 CL        142.7391  143.1714  170.7626 Cl      1  UNL1       -0.0824
     39 C         140.8436  143.1507  168.9860 C.2     1  UNL1       -0.0058
     40 C         140.3151  142.7033  167.6553 C.3     1  UNL1        0.1046
     41 C         141.1539  141.8292  166.7707 C.2     1  UNL1        0.2175
     42 N         140.9018  141.2355  165.4165 N.2     1  UNL1       -0.0389
@<TRIPOS>BOND
     1    19    20    1
     2    20    21    2
     3    20    22    2
     4    20    13    1
     5    13    14   ar
     6    14    15   ar
     7    15    16   ar
     8    16    12    1
     9    12     1    1
    10     1     2   ar
    11     2     3   ar
    12     3     4   ar
    13     4     5   ar
    14     5     6   ar
    15     6     7   ar
    16     7     8    2
    17     7     9   ar
    18     9    25    1
    19    25    26    1
    20    26    27    1
    21    27    28    1
    22    28    29    1
    23    29    30    1
    24    30    33    1
    25    33    34    2
    26    34    35    1
    27    35    36    2
    28    36    37    1
    29    37    38    1
    30    37    39    2
    31    39    40    1
    32    40    41    1
    33    41    42    2
    34    30    31    1
    35    31    32    1
    36     9    10   ar
    37    10    11   ar
    38    16    17   ar
    39    17    18   ar
    40    18    13   ar
    41    11     1   ar
    42    10     4   ar
    43    32    27    1
    44    42    33    1
    45    41    35    1
    46    19    23    1
    47    19    24    1
