@<TRIPOS>MOLECULE
*****
 39 43 0 0 0
SMALL
GASTEIGER

@<TRIPOS>ATOM
      1 C         139.3307  139.8590  160.1207 C.ar    1  UNL1       -0.0183
      2 C         138.1114  139.1471  160.6269 C.ar    1  UNL1       -0.0043
      3 C         137.9186  138.9451  162.1006 C.ar    1  UNL1       -0.0048
      4 C         138.9452  139.4549  163.0682 C.ar    1  UNL1       -0.0228
      5 C         140.1645  140.1668  162.5620 C.ar    1  UNL1       -0.0065
      6 C         140.3573  140.3689  161.0883 C.ar    1  UNL1       -0.0069
      7 C         141.1911  140.6767  163.5296 C.3     1  UNL1        0.1201
      8 N         140.9983  140.4747  165.0033 N.am    1  UNL1       -0.2717
      9 C         142.0249  140.9845  165.9709 C.2     1  UNL1        0.2486
     10 O         143.2443  141.6964  165.4647 O.2     1  UNL1       -0.2699
     11 C         139.7789  139.7627  165.5096 C.3     1  UNL1        0.0987
     12 C         138.7523  139.2528  164.5420 C.3     1  UNL1        0.0476
     13 C         141.8321  140.7824  167.4447 C.ar    1  UNL1        0.0451
     14 C         142.4516  139.5989  168.1268 C.ar    1  UNL1       -0.0217
     15 C         143.2640  138.6174  167.3352 C.3     1  UNL1        0.0308
     16 C         142.2587  139.3968  169.6006 C.ar    1  UNL1       -0.0260
     17 C         142.8783  138.2133  170.2828 C.3     1  UNL1        0.0307
     18 C         141.4464  140.3783  170.3922 C.ar    1  UNL1       -0.0091
     19 C         140.8268  141.5619  169.7100 C.ar    1  UNL1       -0.0260
     20 C         140.0144  142.5435  170.5016 C.3     1  UNL1        0.0307
     21 C         141.0197  141.7640  168.2363 C.ar    1  UNL1       -0.0217
     22 C         140.4001  142.9476  167.5541 C.3     1  UNL1        0.0308
     23 C         139.5236  140.0611  158.6469 C.3     1  UNL1        0.0498
     24 N         143.5334  136.7902  155.6591 N.ar    1  UNL1       -0.2318
     25 N         144.7012  137.7291  155.7296 N.ar    1  UNL1       -0.0639
     26 N         144.2685  138.9511  156.4842 N.ar    1  UNL1       -0.1291
     27 C         142.8334  138.7675  156.8801 C.ar    1  UNL1        0.1174
     28 C         141.8815  139.6438  157.6390 C.ar    1  UNL1       -0.0046
     29 C         142.3359  140.9794  158.1490 C.3     1  UNL1        0.0324
     30 C         140.4754  139.1847  157.8880 C.ar    1  UNL1       -0.0204
     31 C         140.0211  137.8492  157.3780 C.ar    1  UNL1       -0.0026
     32 C         140.9729  136.9728  156.6190 C.ar    1  UNL1        0.0200
     33 C         142.3791  137.4320  156.3701 C.ar    1  UNL1        0.0985
     34 C         143.7548  134.2058  155.8058 C.3     1  UNL1        0.0285
     35 C         143.5221  135.4457  154.9942 C.3     1  UNL1        0.1292
     36 C         138.7646  141.1395  157.9321 C.3     1  UNL1        0.0504
     37 C         138.9746  142.5773  158.3044 C.2     1  UNL1        0.0510
     38 O         138.4375  143.1020  159.6030 O.co2   1  UNL1       -0.5491
     39 O         139.7217  143.4904  157.3781 O.co2   1  UNL1       -0.5491
@<TRIPOS>UNITY_ATOM_ATTR
38 1
charge -1
@<TRIPOS>BOND
     1    34    35    1
     2    35    24    1
     3    24    25   ar
     4    25    26   ar
     5    26    27   ar
     6    27    28   ar
     7    28    29    1
     8    28    30   ar
     9    30    23    1
    10    23    36    1
    11    36    37    1
    12    37    38   ar
    13    37    39   ar
    14    23     1    1
    15     1     2   ar
    16     2     3   ar
    17     3     4   ar
    18     4     5   ar
    19     5     6   ar
    20     5     7    1
    21     7     8    1
    22     8     9   am
    23     9    10    2
    24     9    13    1
    25    13    14   ar
    26    14    15    1
    27    14    16   ar
    28    16    17    1
    29    16    18   ar
    30    18    19   ar
    31    19    20    1
    32    19    21   ar
    33    21    22    1
    34     8    11    1
    35    11    12    1
    36    30    31   ar
    37    31    32   ar
    38    32    33   ar
    39    33    24   ar
    40    33    27   ar
    41     6     1   ar
    42    21    13   ar
    43    12     4    1
@<TRIPOS>MOLECULE
*****
 39 43 0 0 0
SMALL
GASTEIGER

@<TRIPOS>ATOM
      1 C         139.8477  139.3464  159.9192 C.ar    1  UNL1       -0.0183
      2 C         138.8056  138.3730  160.3844 C.ar    1  UNL1       -0.0043
      3 C         138.6126  138.1249  161.8510 C.ar    1  UNL1       -0.0048
      4 C         139.4617  138.8503  162.8525 C.ar    1  UNL1       -0.0228
      5 C         140.5038  139.8236  162.3873 C.ar    1  UNL1       -0.0065
      6 C         140.6968  140.0717  160.9206 C.ar    1  UNL1       -0.0069
      7 C         141.3529  140.5490  163.3888 C.3     1  UNL1        0.1201
      8 N         141.1598  140.3009  164.8554 N.am    1  UNL1       -0.2717
      9 C         142.0089  141.0262  165.8569 C.2     1  UNL1        0.2486
     10 O         143.0511  141.9996  165.3917 O.2     1  UNL1       -0.2699
     11 C         140.1177  139.3275  165.3207 C.3     1  UNL1        0.0987
     12 C         139.2686  138.6022  164.3192 C.3     1  UNL1        0.0476
     13 C         141.8158  140.7781  167.3237 C.ar    1  UNL1        0.0451
     14 C         140.9584  141.7040  168.1344 C.ar    1  UNL1       -0.0217
     15 C         140.2940  142.8781  167.4785 C.3     1  UNL1        0.0308
     16 C         140.7653  141.4559  169.6012 C.ar    1  UNL1       -0.0260
     17 C         139.9078  142.3819  170.4119 C.3     1  UNL1        0.0307
     18 C         141.4297  140.2819  170.2570 C.ar    1  UNL1       -0.0091
     19 C         142.2872  139.3560  169.4462 C.ar    1  UNL1       -0.0260
     20 C         142.9516  138.1819  170.1021 C.3     1  UNL1        0.0307
     21 C         142.4803  139.6041  167.9795 C.ar    1  UNL1       -0.0217
     22 C         143.3378  138.6782  167.1687 C.3     1  UNL1        0.0308
     23 C         140.0408  139.5945  158.4524 C.3     1  UNL1        0.0498
     24 N         142.7216  135.4577  155.0753 N.ar    1  UNL1       -0.2318
     25 N         144.1507  135.8246  155.3456 N.ar    1  UNL1       -0.0639
     26 N         144.1594  136.9930  156.2860 N.ar    1  UNL1       -0.1291
     27 C         142.7357  137.3484  156.5970 C.ar    1  UNL1        0.1174
     28 C         142.1336  138.4134  157.4649 C.ar    1  UNL1       -0.0046
     29 C         143.0223  139.3623  158.2132 C.3     1  UNL1        0.0324
     30 C         140.6429  138.5295  157.5845 C.ar    1  UNL1       -0.0204
     31 C         139.7542  137.5805  156.8362 C.ar    1  UNL1       -0.0026
     32 C         140.3563  136.5155  155.9683 C.ar    1  UNL1        0.0200
     33 C         141.8471  136.3995  155.8487 C.ar    1  UNL1        0.0985
     34 C         141.6039  133.1302  154.7861 C.3     1  UNL1        0.0285
     35 C         142.2498  134.3445  154.1874 C.3     1  UNL1        0.1292
     36 C         139.6318  140.9075  157.8537 C.3     1  UNL1        0.0504
     37 C         138.2458  141.4351  158.0786 C.2     1  UNL1        0.0510
     38 O         138.0495  142.8064  158.6542 O.co2   1  UNL1       -0.5491
     39 O         137.0561  140.5916  157.7279 O.co2   1  UNL1       -0.5491
@<TRIPOS>UNITY_ATOM_ATTR
38 1
charge -1
@<TRIPOS>BOND
     1    34    35    1
     2    35    24    1
     3    24    25   ar
     4    25    26   ar
     5    26    27   ar
     6    27    28   ar
     7    28    29    1
     8    28    30   ar
     9    30    23    1
    10    23    36    1
    11    36    37    1
    12    37    38   ar
    13    37    39   ar
    14    23     1    1
    15     1     2   ar
    16     2     3   ar
    17     3     4   ar
    18     4     5   ar
    19     5     6   ar
    20     5     7    1
    21     7     8    1
    22     8     9   am
    23     9    10    2
    24     9    13    1
    25    13    14   ar
    26    14    15    1
    27    14    16   ar
    28    16    17    1
    29    16    18   ar
    30    18    19   ar
    31    19    20    1
    32    19    21   ar
    33    21    22    1
    34     8    11    1
    35    11    12    1
    36    30    31   ar
    37    31    32   ar
    38    32    33   ar
    39    33    24   ar
    40    33    27   ar
    41     6     1   ar
    42    21    13   ar
    43    12     4    1
@<TRIPOS>MOLECULE
*****
 39 43 0 0 0
SMALL
GASTEIGER

@<TRIPOS>ATOM
      1 C         139.5872  141.1412  159.0039 C.ar    1  UNL1       -0.0183
      2 C         139.1940  142.5664  159.2570 C.ar    1  UNL1       -0.0043
      3 C         139.2076  143.1113  160.6544 C.ar    1  UNL1       -0.0048
      4 C         139.6146  142.2310  161.7988 C.ar    1  UNL1       -0.0228
      5 C         140.0079  140.8058  161.5456 C.ar    1  UNL1       -0.0065
      6 C         139.9942  140.2609  160.1482 C.ar    1  UNL1       -0.0069
      7 C         140.4148  139.9255  162.6899 C.3     1  UNL1        0.1201
      8 N         140.4285  140.4703  164.0874 N.am    1  UNL1       -0.2717
      9 C         140.8354  139.5900  165.2317 C.2     1  UNL1        0.2486
     10 O         141.2287  138.1648  164.9785 O.2     1  UNL1       -0.2699
     11 C         140.0352  141.8956  164.3406 C.3     1  UNL1        0.0987
     12 C         139.6282  142.7759  163.1963 C.3     1  UNL1        0.0476
     13 C         140.8491  140.1349  166.6292 C.ar    1  UNL1        0.0451
     14 C         139.6802  139.8967  167.5385 C.ar    1  UNL1       -0.0217
     15 C         138.4977  139.1135  167.0504 C.3     1  UNL1        0.0308
     16 C         139.6938  140.4416  168.9360 C.ar    1  UNL1       -0.0260
     17 C         138.5250  140.2034  169.8453 C.3     1  UNL1        0.0307
     18 C         140.8764  141.2248  169.4241 C.ar    1  UNL1       -0.0091
     19 C         142.0453  141.4630  168.5147 C.ar    1  UNL1       -0.0260
     20 C         143.2279  142.2462  169.0027 C.3     1  UNL1        0.0307
     21 C         142.0316  140.9181  167.1172 C.ar    1  UNL1       -0.0217
     22 C         143.2005  141.1563  166.2078 C.3     1  UNL1        0.0308
     23 C         139.5736  140.5963  157.6064 C.3     1  UNL1        0.0498
     24 N         143.7591  136.6735  155.9336 N.ar    1  UNL1       -0.2318
     25 N         144.8817  137.6304  155.6611 N.ar    1  UNL1       -0.0639
     26 N         144.3858  139.0182  155.9402 N.ar    1  UNL1       -0.1291
     27 C         142.9568  138.9191  156.3852 C.ar    1  UNL1        0.1174
     28 C         141.9581  139.9612  156.7936 C.ar    1  UNL1       -0.0046
     29 C         142.3455  141.4104  156.7977 C.3     1  UNL1        0.0324
     30 C         140.5722  139.5542  157.1980 C.ar    1  UNL1       -0.0204
     31 C         140.1849  138.1050  157.1939 C.ar    1  UNL1       -0.0026
     32 C         141.1835  137.0630  156.7855 C.ar    1  UNL1        0.0200
     33 C         142.5695  137.4700  156.3811 C.ar    1  UNL1        0.0985
     34 C         143.7765  134.3049  157.0010 C.3     1  UNL1        0.0285
     35 C         143.8162  135.1820  155.7847 C.3     1  UNL1        0.1292
     36 C         138.5614  141.0934  156.6174 C.3     1  UNL1        0.0504
     37 C         137.3423  140.2733  156.3153 C.2     1  UNL1        0.0510
     38 O         137.4174  139.1586  155.3144 O.co2   1  UNL1       -0.5491
     39 O         136.0482  140.5679  157.0142 O.co2   1  UNL1       -0.5491
@<TRIPOS>UNITY_ATOM_ATTR
38 1
charge -1
@<TRIPOS>BOND
     1    34    35    1
     2    35    24    1
     3    24    25   ar
     4    25    26   ar
     5    26    27   ar
     6    27    28   ar
     7    28    29    1
     8    28    30   ar
     9    30    23    1
    10    23    36    1
    11    36    37    1
    12    37    38   ar
    13    37    39   ar
    14    23     1    1
    15     1     2   ar
    16     2     3   ar
    17     3     4   ar
    18     4     5   ar
    19     5     6   ar
    20     5     7    1
    21     7     8    1
    22     8     9   am
    23     9    10    2
    24     9    13    1
    25    13    14   ar
    26    14    15    1
    27    14    16   ar
    28    16    17    1
    29    16    18   ar
    30    18    19   ar
    31    19    20    1
    32    19    21   ar
    33    21    22    1
    34     8    11    1
    35    11    12    1
    36    30    31   ar
    37    31    32   ar
    38    32    33   ar
    39    33    24   ar
    40    33    27   ar
    41     6     1   ar
    42    21    13   ar
    43    12     4    1
@<TRIPOS>MOLECULE
*****
 39 43 0 0 0
SMALL
GASTEIGER

@<TRIPOS>ATOM
      1 C         142.2216  137.0200  156.8253 C.ar    1  UNL1       -0.0183
      2 C         140.8801  137.5413  156.4030 C.ar    1  UNL1       -0.0043
      3 C         140.0140  138.2686  157.3884 C.ar    1  UNL1       -0.0048
      4 C         140.4896  138.4746  158.7960 C.ar    1  UNL1       -0.0228
      5 C         141.8312  137.9533  159.2183 C.ar    1  UNL1       -0.0065
      6 C         142.6972  137.2260  158.2329 C.ar    1  UNL1       -0.0069
      7 C         142.3067  138.1593  160.6259 C.3     1  UNL1        0.1201
      8 N         141.4407  138.8866  161.6113 N.am    1  UNL1       -0.2717
      9 C         141.9162  139.0925  163.0189 C.2     1  UNL1        0.2486
     10 O         143.2578  138.5712  163.4412 O.2     1  UNL1       -0.2699
     11 C         140.0990  139.4079  161.1891 C.3     1  UNL1        0.0987
     12 C         139.6235  139.2019  159.7814 C.3     1  UNL1        0.0476
     13 C         141.0501  139.8199  164.0043 C.ar    1  UNL1        0.0451
     14 C         140.0722  139.0580  164.8488 C.ar    1  UNL1       -0.0217
     15 C         139.9604  137.5688  164.7080 C.3     1  UNL1        0.0308
     16 C         139.2061  139.7854  165.8342 C.ar    1  UNL1       -0.0260
     17 C         138.2282  139.0235  166.6787 C.3     1  UNL1        0.0307
     18 C         139.3180  141.2745  165.9750 C.ar    1  UNL1       -0.0091
     19 C         140.2959  142.0364  165.1304 C.ar    1  UNL1       -0.0260
     20 C         140.4078  143.5256  165.2713 C.3     1  UNL1        0.0307
     21 C         141.1620  141.3091  164.1451 C.ar    1  UNL1       -0.0217
     22 C         142.1400  142.0709  163.3005 C.3     1  UNL1        0.0308
     23 C         143.0878  136.2927  155.8399 C.3     1  UNL1        0.0498
     24 N         141.5021  130.8318  154.0046 N.ar    1  UNL1       -0.2318
     25 N         141.9548  130.0429  155.1974 N.ar    1  UNL1       -0.0639
     26 N         142.5461  131.0004  156.1891 N.ar    1  UNL1       -0.1291
     27 C         142.4588  132.3810  155.6092 C.ar    1  UNL1        0.1174
     28 C         142.8836  133.7197  156.1361 C.ar    1  UNL1       -0.0046
     29 C         143.5288  133.8239  157.4863 C.3     1  UNL1        0.0324
     30 C         142.6630  134.9540  155.3130 C.ar    1  UNL1       -0.0204
     31 C         142.0178  134.8498  153.9628 C.ar    1  UNL1       -0.0026
     32 C         141.5930  133.5112  153.4359 C.ar    1  UNL1        0.0200
     33 C         141.8136  132.2768  154.2592 C.ar    1  UNL1        0.0985
     34 C         139.4370  130.6428  152.4395 C.3     1  UNL1        0.0285
     35 C         140.8520  130.2736  152.7734 C.3     1  UNL1        0.1292
     36 C         144.3785  136.9040  155.3815 C.3     1  UNL1        0.0504
     37 C         144.4641  138.3818  155.1389 C.2     1  UNL1        0.0510
     38 O         145.2545  139.2505  156.0721 O.co2   1  UNL1       -0.5491
     39 O         143.7592  138.9909  153.9633 O.co2   1  UNL1       -0.5491
@<TRIPOS>UNITY_ATOM_ATTR
38 1
charge -1
@<TRIPOS>BOND
     1    34    35    1
     2    35    24    1
     3    24    25   ar
     4    25    26   ar
     5    26    27   ar
     6    27    28   ar
     7    28    29    1
     8    28    30   ar
     9    30    23    1
    10    23    36    1
    11    36    37    1
    12    37    38   ar
    13    37    39   ar
    14    23     1    1
    15     1     2   ar
    16     2     3   ar
    17     3     4   ar
    18     4     5   ar
    19     5     6   ar
    20     5     7    1
    21     7     8    1
    22     8     9   am
    23     9    10    2
    24     9    13    1
    25    13    14   ar
    26    14    15    1
    27    14    16   ar
    28    16    17    1
    29    16    18   ar
    30    18    19   ar
    31    19    20    1
    32    19    21   ar
    33    21    22    1
    34     8    11    1
    35    11    12    1
    36    30    31   ar
    37    31    32   ar
    38    32    33   ar
    39    33    24   ar
    40    33    27   ar
    41     6     1   ar
    42    21    13   ar
    43    12     4    1
@<TRIPOS>MOLECULE
*****
 39 43 0 0 0
SMALL
GASTEIGER

@<TRIPOS>ATOM
      1 C         142.2255  137.0213  156.8102 C.ar    1  UNL1       -0.0183
      2 C         140.8813  137.5383  156.3907 C.ar    1  UNL1       -0.0043
      3 C         140.0143  138.2614  157.3783 C.ar    1  UNL1       -0.0048
      4 C         140.4914  138.4676  158.7854 C.ar    1  UNL1       -0.0228
      5 C         141.8356  137.9506  159.2049 C.ar    1  UNL1       -0.0065
      6 C         142.7026  137.2275  158.2173 C.ar    1  UNL1       -0.0069
      7 C         142.3127  138.1567  160.6120 C.3     1  UNL1        0.1201
      8 N         141.4457  138.8798  161.5995 N.am    1  UNL1       -0.2717
      9 C         141.9228  139.0859  163.0066 C.2     1  UNL1        0.2486
     10 O         143.2669  138.5689  163.4261 O.2     1  UNL1       -0.2699
     11 C         140.1015  139.3968  161.1800 C.3     1  UNL1        0.0987
     12 C         139.6244  139.1907  159.7730 C.3     1  UNL1        0.0476
     13 C         141.0557  139.8091  163.9942 C.ar    1  UNL1        0.0451
     14 C         141.1795  141.2954  164.1538 C.ar    1  UNL1       -0.0217
     15 C         142.1705  142.0586  163.3258 C.3     1  UNL1        0.0308
     16 C         140.3125  142.0186  165.1414 C.ar    1  UNL1       -0.0260
     17 C         140.4363  143.5049  165.3010 C.3     1  UNL1        0.0307
     18 C         139.3215  141.2553  165.9694 C.ar    1  UNL1       -0.0091
     19 C         139.1977  139.7689  165.8098 C.ar    1  UNL1       -0.0260
     20 C         138.2068  139.0057  166.6377 C.3     1  UNL1        0.0307
     21 C         140.0648  139.0459  164.8222 C.ar    1  UNL1       -0.0217
     22 C         139.9409  137.5595  164.6626 C.3     1  UNL1        0.0308
     23 C         143.0925  136.2982  155.8226 C.3     1  UNL1        0.0498
     24 N         141.5159  130.8338  153.9896 N.ar    1  UNL1       -0.2318
     25 N         141.9323  130.0514  155.1998 N.ar    1  UNL1       -0.0639
     26 N         142.5047  131.0127  156.1989 N.ar    1  UNL1       -0.1291
     27 C         142.4421  132.3892  155.6062 C.ar    1  UNL1        0.1174
     28 C         142.8626  133.7290  156.1335 C.ar    1  UNL1       -0.0046
     29 C         143.4738  133.8396  157.4989 C.3     1  UNL1        0.0324
     30 C         142.6720  134.9583  155.2954 C.ar    1  UNL1       -0.0204
     31 C         142.0609  134.8478  153.9299 C.ar    1  UNL1       -0.0026
     32 C         141.6404  133.5080  153.4027 C.ar    1  UNL1        0.0200
     33 C         141.8310  132.2786  154.2409 C.ar    1  UNL1        0.0985
     34 C         139.4620  130.5763  152.4195 C.3     1  UNL1        0.0285
     35 C         140.8937  130.2703  152.7465 C.3     1  UNL1        0.1292
     36 C         144.3801  136.9149  155.3623 C.3     1  UNL1        0.0504
     37 C         144.4627  138.3948  155.1321 C.2     1  UNL1        0.0510
     38 O         143.7394  139.0151  153.9736 O.co2   1  UNL1       -0.5491
     39 O         145.2686  139.2543  156.0603 O.co2   1  UNL1       -0.5491
@<TRIPOS>UNITY_ATOM_ATTR
38 1
charge -1
@<TRIPOS>BOND
     1    34    35    1
     2    35    24    1
     3    24    25   ar
     4    25    26   ar
     5    26    27   ar
     6    27    28   ar
     7    28    29    1
     8    28    30   ar
     9    30    23    1
    10    23    36    1
    11    36    37    1
    12    37    38   ar
    13    37    39   ar
    14    23     1    1
    15     1     2   ar
    16     2     3   ar
    17     3     4   ar
    18     4     5   ar
    19     5     6   ar
    20     5     7    1
    21     7     8    1
    22     8     9   am
    23     9    10    2
    24     9    13    1
    25    13    14   ar
    26    14    15    1
    27    14    16   ar
    28    16    17    1
    29    16    18   ar
    30    18    19   ar
    31    19    20    1
    32    19    21   ar
    33    21    22    1
    34     8    11    1
    35    11    12    1
    36    30    31   ar
    37    31    32   ar
    38    32    33   ar
    39    33    24   ar
    40    33    27   ar
    41     6     1   ar
    42    21    13   ar
    43    12     4    1
@<TRIPOS>MOLECULE
*****
 39 43 0 0 0
SMALL
GASTEIGER

@<TRIPOS>ATOM
      1 C         140.3635  140.7920  162.8882 C.ar    1  UNL1       -0.0183
      2 C         140.9065  139.3986  163.0050 C.ar    1  UNL1       -0.0043
      3 C         141.8764  138.8836  161.9833 C.ar    1  UNL1       -0.0048
      4 C         142.3033  139.7620  160.8448 C.ar    1  UNL1       -0.0228
      5 C         141.7603  141.1553  160.7280 C.ar    1  UNL1       -0.0065
      6 C         140.7904  141.6703  161.7497 C.ar    1  UNL1       -0.0069
      7 C         142.1872  142.0337  159.5894 C.3     1  UNL1        0.1201
      8 N         143.1572  141.5187  158.5677 N.am    1  UNL1       -0.2717
      9 C         143.5841  142.3970  157.4292 C.2     1  UNL1        0.2486
     10 O         143.0410  143.7904  157.3124 O.2     1  UNL1       -0.2699
     11 C         143.7002  140.1253  158.6845 C.3     1  UNL1        0.0987
     12 C         143.2733  139.2469  159.8230 C.3     1  UNL1        0.0476
     13 C         144.5541  141.8820  156.4074 C.ar    1  UNL1        0.0451
     14 C         146.0229  142.1379  156.5717 C.ar    1  UNL1       -0.0217
     15 C         146.5218  142.9089  157.7578 C.3     1  UNL1        0.0308
     16 C         146.9929  141.6229  155.5500 C.ar    1  UNL1       -0.0260
     17 C         148.4617  141.8788  155.7143 C.3     1  UNL1        0.0307
     18 C         146.4940  140.8519  154.3640 C.ar    1  UNL1       -0.0091
     19 C         145.0251  140.5959  154.1997 C.ar    1  UNL1       -0.0260
     20 C         144.5262  139.8249  153.0136 C.3     1  UNL1        0.0307
     21 C         144.0552  141.1110  155.2214 C.ar    1  UNL1       -0.0217
     22 C         142.5863  140.8550  155.0571 C.3     1  UNL1        0.0308
     23 C         139.3935  141.3070  163.9100 C.3     1  UNL1        0.0498
     24 N         140.7649  141.2600  169.7256 N.ar    1  UNL1       -0.2318
     25 N         139.9239  140.0945  170.1554 N.ar    1  UNL1       -0.0639
     26 N         139.2060  139.5704  168.9471 N.ar    1  UNL1       -0.1291
     27 C         139.6033  140.4119  167.7706 C.ar    1  UNL1        0.1174
     28 C         139.2122  140.3622  166.3233 C.ar    1  UNL1       -0.0046
     29 C         138.2487  139.3180  165.8422 C.3     1  UNL1        0.0324
     30 C         139.7845  141.3567  165.3572 C.ar    1  UNL1       -0.0204
     31 C         140.7480  142.4009  165.8384 C.ar    1  UNL1       -0.0026
     32 C         141.1391  142.4506  167.2857 C.ar    1  UNL1        0.0200
     33 C         140.5667  141.4560  168.2518 C.ar    1  UNL1        0.0985
     34 C         143.0835  142.3130  170.2403 C.3     1  UNL1        0.0285
     35 C         141.6488  142.0845  170.6138 C.3     1  UNL1        0.1292
     36 C         138.0325  141.7724  163.4844 C.3     1  UNL1        0.0504
     37 C         137.7925  143.2248  163.1964 C.2     1  UNL1        0.0510
     38 O         137.5407  144.1813  164.3241 O.co2   1  UNL1       -0.5491
     39 O         137.8044  143.7206  161.7808 O.co2   1  UNL1       -0.5491
@<TRIPOS>UNITY_ATOM_ATTR
38 1
charge -1
@<TRIPOS>BOND
     1    34    35    1
     2    35    24    1
     3    24    25   ar
     4    25    26   ar
     5    26    27   ar
     6    27    28   ar
     7    28    29    1
     8    28    30   ar
     9    30    23    1
    10    23    36    1
    11    36    37    1
    12    37    38   ar
    13    37    39   ar
    14    23     1    1
    15     1     2   ar
    16     2     3   ar
    17     3     4   ar
    18     4     5   ar
    19     5     6   ar
    20     5     7    1
    21     7     8    1
    22     8     9   am
    23     9    10    2
    24     9    13    1
    25    13    14   ar
    26    14    15    1
    27    14    16   ar
    28    16    17    1
    29    16    18   ar
    30    18    19   ar
    31    19    20    1
    32    19    21   ar
    33    21    22    1
    34     8    11    1
    35    11    12    1
    36    30    31   ar
    37    31    32   ar
    38    32    33   ar
    39    33    24   ar
    40    33    27   ar
    41     6     1   ar
    42    21    13   ar
    43    12     4    1
@<TRIPOS>MOLECULE
*****
 39 43 0 0 0
SMALL
GASTEIGER

@<TRIPOS>ATOM
      1 C         140.6601  143.4585  159.9020 C.ar    1  UNL1       -0.0183
      2 C         140.0294  144.7416  160.3555 C.ar    1  UNL1       -0.0043
      3 C         139.7888  144.9839  161.8161 C.ar    1  UNL1       -0.0048
      4 C         140.1790  143.9430  162.8232 C.ar    1  UNL1       -0.0228
      5 C         140.8098  142.6599  162.3698 C.ar    1  UNL1       -0.0065
      6 C         141.0503  142.4176  160.9092 C.ar    1  UNL1       -0.0069
      7 C         141.2000  141.6191  163.3769 C.3     1  UNL1        0.1201
      8 N         140.9594  141.8613  164.8375 N.am    1  UNL1       -0.2717
      9 C         141.3496  140.8205  165.8447 C.2     1  UNL1        0.2486
     10 O         141.9804  139.5374  165.3913 O.2     1  UNL1       -0.2699
     11 C         140.3286  143.1445  165.2910 C.3     1  UNL1        0.0987
     12 C         139.9384  144.1854  164.2839 C.3     1  UNL1        0.0476
     13 C         141.1090  141.0628  167.3054 C.ar    1  UNL1        0.0451
     14 C         142.0816  141.8833  168.0997 C.ar    1  UNL1       -0.0217
     15 C         143.2948  142.4614  167.4334 C.3     1  UNL1        0.0308
     16 C         141.8410  142.1256  169.5603 C.ar    1  UNL1       -0.0260
     17 C         142.8135  142.9460  170.3546 C.3     1  UNL1        0.0307
     18 C         140.6278  141.5474  170.2266 C.ar    1  UNL1       -0.0091
     19 C         139.6552  140.7269  169.4322 C.ar    1  UNL1       -0.0260
     20 C         138.4420  140.1488  170.0985 C.3     1  UNL1        0.0307
     21 C         139.8958  140.4847  167.9716 C.ar    1  UNL1       -0.0217
     22 C         138.9233  139.6642  167.1772 C.3     1  UNL1        0.0308
     23 C         140.9007  143.2162  158.4414 C.3     1  UNL1        0.0498
     24 N         136.8449  140.2814  155.1792 N.ar    1  UNL1       -0.2318
     25 N         137.3807  138.8891  155.3361 N.ar    1  UNL1       -0.0639
     26 N         138.6073  138.9588  156.1967 N.ar    1  UNL1       -0.1291
     27 C         138.8295  140.3941  156.5717 C.ar    1  UNL1        0.1174
     28 C         139.8830  141.0623  157.4046 C.ar    1  UNL1       -0.0046
     29 C         140.9722  140.2449  158.0335 C.3     1  UNL1        0.0324
     30 C         139.8473  142.5479  157.6085 C.ar    1  UNL1       -0.0204
     31 C         138.7581  143.3654  156.9796 C.ar    1  UNL1       -0.0026
     32 C         137.7046  142.6971  156.1467 C.ar    1  UNL1        0.0200
     33 C         137.7403  141.2114  155.9428 C.ar    1  UNL1        0.0985
     34 C         134.2813  140.6849  155.0577 C.3     1  UNL1        0.0285
     35 C         135.6275  140.6745  154.3961 C.3     1  UNL1        0.1292
     36 C         142.1947  143.6421  157.8136 C.3     1  UNL1        0.0504
     37 C         142.2968  144.9773  157.1377 C.2     1  UNL1        0.0510
     38 O         142.2059  145.0703  155.6433 O.co2   1  UNL1       -0.5491
     39 O         142.4897  146.2194  157.9561 O.co2   1  UNL1       -0.5491
@<TRIPOS>UNITY_ATOM_ATTR
38 1
charge -1
@<TRIPOS>BOND
     1    34    35    1
     2    35    24    1
     3    24    25   ar
     4    25    26   ar
     5    26    27   ar
     6    27    28   ar
     7    28    29    1
     8    28    30   ar
     9    30    23    1
    10    23    36    1
    11    36    37    1
    12    37    38   ar
    13    37    39   ar
    14    23     1    1
    15     1     2   ar
    16     2     3   ar
    17     3     4   ar
    18     4     5   ar
    19     5     6   ar
    20     5     7    1
    21     7     8    1
    22     8     9   am
    23     9    10    2
    24     9    13    1
    25    13    14   ar
    26    14    15    1
    27    14    16   ar
    28    16    17    1
    29    16    18   ar
    30    18    19   ar
    31    19    20    1
    32    19    21   ar
    33    21    22    1
    34     8    11    1
    35    11    12    1
    36    30    31   ar
    37    31    32   ar
    38    32    33   ar
    39    33    24   ar
    40    33    27   ar
    41     6     1   ar
    42    21    13   ar
    43    12     4    1
@<TRIPOS>MOLECULE
*****
 39 43 0 0 0
SMALL
GASTEIGER

@<TRIPOS>ATOM
      1 C         140.5696  143.7672  159.9288 C.ar    1  UNL1       -0.0183
      2 C         140.0129  145.0617  160.4427 C.ar    1  UNL1       -0.0043
      3 C         139.8255  145.2648  161.9170 C.ar    1  UNL1       -0.0048
      4 C         140.1949  144.1734  162.8774 C.ar    1  UNL1       -0.0228
      5 C         140.7517  142.8788  162.3634 C.ar    1  UNL1       -0.0065
      6 C         140.9391  142.6757  160.8891 C.ar    1  UNL1       -0.0069
      7 C         141.1211  141.7874  163.3238 C.3     1  UNL1        0.1201
      8 N         140.9337  141.9905  164.7981 N.am    1  UNL1       -0.2717
      9 C         141.3031  140.8991  165.7585 C.2     1  UNL1        0.2486
     10 O         141.8599  139.6045  165.2446 O.2     1  UNL1       -0.2699
     11 C         140.3770  143.2851  165.3121 C.3     1  UNL1        0.0987
     12 C         140.0076  144.3765  164.3517 C.3     1  UNL1        0.0476
     13 C         141.1158  141.1022  167.2329 C.ar    1  UNL1        0.0451
     14 C         139.9128  140.5296  167.9219 C.ar    1  UNL1       -0.0217
     15 C         138.8971  139.7538  167.1367 C.3     1  UNL1        0.0308
     16 C         139.7254  140.7328  169.3963 C.ar    1  UNL1       -0.0260
     17 C         138.5224  140.1601  170.0854 C.3     1  UNL1        0.0307
     18 C         140.7410  141.5086  170.1815 C.ar    1  UNL1       -0.0091
     19 C         141.9441  142.0812  169.4924 C.ar    1  UNL1       -0.0260
     20 C         142.9598  142.8570  170.2776 C.3     1  UNL1        0.0307
     21 C         142.1314  141.8780  168.0181 C.ar    1  UNL1       -0.0217
     22 C         143.3345  142.4507  167.3289 C.3     1  UNL1        0.0308
     23 C         140.7570  143.5640  158.4544 C.3     1  UNL1        0.0498
     24 N         142.5849  138.2621  156.3920 N.ar    1  UNL1       -0.2318
     25 N         144.0663  138.4579  156.5225 N.ar    1  UNL1       -0.0639
     26 N         144.3052  139.8294  157.0810 N.ar    1  UNL1       -0.1291
     27 C         142.9715  140.4812  157.2956 C.ar    1  UNL1        0.1174
     28 C         142.5877  141.8317  157.8238 C.ar    1  UNL1       -0.0046
     29 C         143.6510  142.8004  158.2496 C.3     1  UNL1        0.0324
     30 C         141.1408  142.2136  157.9262 C.ar    1  UNL1       -0.0204
     31 C         140.0775  141.2449  157.5004 C.ar    1  UNL1       -0.0026
     32 C         140.4612  139.8944  156.9722 C.ar    1  UNL1        0.0200
     33 C         141.9083  139.5126  156.8698 C.ar    1  UNL1        0.0985
     34 C         142.2630  135.6843  156.4247 C.3     1  UNL1        0.0285
     35 C         141.9003  137.0318  155.8746 C.3     1  UNL1        0.1292
     36 C         140.5607  144.7113  157.5083 C.3     1  UNL1        0.0504
     37 C         141.7443  145.4955  157.0245 C.2     1  UNL1        0.0510
     38 O         142.1091  145.4819  155.5695 O.co2   1  UNL1       -0.5491
     39 O         142.5631  146.2933  157.9956 O.co2   1  UNL1       -0.5491
@<TRIPOS>UNITY_ATOM_ATTR
38 1
charge -1
@<TRIPOS>BOND
     1    34    35    1
     2    35    24    1
     3    24    25   ar
     4    25    26   ar
     5    26    27   ar
     6    27    28   ar
     7    28    29    1
     8    28    30   ar
     9    30    23    1
    10    23    36    1
    11    36    37    1
    12    37    38   ar
    13    37    39   ar
    14    23     1    1
    15     1     2   ar
    16     2     3   ar
    17     3     4   ar
    18     4     5   ar
    19     5     6   ar
    20     5     7    1
    21     7     8    1
    22     8     9   am
    23     9    10    2
    24     9    13    1
    25    13    14   ar
    26    14    15    1
    27    14    16   ar
    28    16    17    1
    29    16    18   ar
    30    18    19   ar
    31    19    20    1
    32    19    21   ar
    33    21    22    1
    34     8    11    1
    35    11    12    1
    36    30    31   ar
    37    31    32   ar
    38    32    33   ar
    39    33    24   ar
    40    33    27   ar
    41     6     1   ar
    42    21    13   ar
    43    12     4    1
@<TRIPOS>MOLECULE
*****
 39 43 0 0 0
SMALL
GASTEIGER

@<TRIPOS>ATOM
      1 C         142.0318  137.0439  157.1565 C.ar    1  UNL1       -0.0183
      2 C         140.6037  137.3948  156.8609 C.ar    1  UNL1       -0.0043
      3 C         139.8119  138.2059  157.8433 C.ar    1  UNL1       -0.0048
      4 C         140.4481  138.6659  159.1214 C.ar    1  UNL1       -0.0228
      5 C         141.8762  138.3149  159.4171 C.ar    1  UNL1       -0.0065
      6 C         142.6680  137.5039  158.4346 C.ar    1  UNL1       -0.0069
      7 C         142.5124  138.7750  160.6952 C.3     1  UNL1        0.1201
      8 N         141.7206  139.5860  161.6776 N.am    1  UNL1       -0.2717
      9 C         142.3568  140.0460  162.9558 C.2     1  UNL1        0.2486
     10 O         143.7849  139.6951  163.2514 O.2     1  UNL1       -0.2699
     11 C         140.2925  139.9370  161.3820 C.3     1  UNL1        0.0987
     12 C         139.6562  139.4770  160.1039 C.3     1  UNL1        0.0476
     13 C         141.5649  140.8571  163.9382 C.ar    1  UNL1        0.0451
     14 C         140.9302  140.1901  165.1224 C.ar    1  UNL1       -0.0217
     15 C         141.0874  138.7121  165.3241 C.3     1  UNL1        0.0308
     16 C         140.1383  141.0012  166.1048 C.ar    1  UNL1       -0.0260
     17 C         139.5036  140.3342  167.2890 C.3     1  UNL1        0.0307
     18 C         139.9812  142.4792  165.9031 C.ar    1  UNL1       -0.0091
     19 C         140.6159  143.1462  164.7189 C.ar    1  UNL1       -0.0260
     20 C         140.4588  144.6242  164.5171 C.3     1  UNL1        0.0307
     21 C         141.4078  142.3351  163.7365 C.ar    1  UNL1       -0.0217
     22 C         142.0425  143.0021  162.5523 C.3     1  UNL1        0.0308
     23 C         142.8237  136.2328  156.1741 C.3     1  UNL1        0.0498
     24 N         143.0139  130.2779  156.6295 N.ar    1  UNL1       -0.2318
     25 N         141.9356  129.9330  155.6455 N.ar    1  UNL1       -0.0639
     26 N         141.3941  131.2139  155.0833 N.ar    1  UNL1       -0.1291
     27 C         142.1378  132.3504  155.7198 C.ar    1  UNL1        0.1174
     28 C         142.0327  133.8374  155.5527 C.ar    1  UNL1       -0.0046
     29 C         141.0316  134.4158  154.5970 C.3     1  UNL1        0.0324
     30 C         142.9287  134.7459  156.3412 C.ar    1  UNL1       -0.0204
     31 C         143.9298  134.1674  157.2968 C.ar    1  UNL1       -0.0026
     32 C         144.0349  132.6805  157.4639 C.ar    1  UNL1        0.0200
     33 C         143.1388  131.7720  156.6754 C.ar    1  UNL1        0.0985
     34 C         143.4591  129.0099  158.8530 C.3     1  UNL1        0.0285
     35 C         143.8249  129.3004  157.4275 C.3     1  UNL1        0.1292
     36 C         143.5105  136.9088  155.0246 C.3     1  UNL1        0.0504
     37 C         144.0245  138.3097  155.1767 C.2     1  UNL1        0.0510
     38 O         145.3987  138.5486  155.7287 O.co2   1  UNL1       -0.5491
     39 O         143.1644  139.4717  154.7770 O.co2   1  UNL1       -0.5491
@<TRIPOS>UNITY_ATOM_ATTR
38 1
charge -1
@<TRIPOS>BOND
     1    34    35    1
     2    35    24    1
     3    24    25   ar
     4    25    26   ar
     5    26    27   ar
     6    27    28   ar
     7    28    29    1
     8    28    30   ar
     9    30    23    1
    10    23    36    1
    11    36    37    1
    12    37    38   ar
    13    37    39   ar
    14    23     1    1
    15     1     2   ar
    16     2     3   ar
    17     3     4   ar
    18     4     5   ar
    19     5     6   ar
    20     5     7    1
    21     7     8    1
    22     8     9   am
    23     9    10    2
    24     9    13    1
    25    13    14   ar
    26    14    15    1
    27    14    16   ar
    28    16    17    1
    29    16    18   ar
    30    18    19   ar
    31    19    20    1
    32    19    21   ar
    33    21    22    1
    34     8    11    1
    35    11    12    1
    36    30    31   ar
    37    31    32   ar
    38    32    33   ar
    39    33    24   ar
    40    33    27   ar
    41     6     1   ar
    42    21    13   ar
    43    12     4    1
