@<TRIPOS>MOLECULE
*****
 32 35 0 0 0
SMALL
GASTEIGER

@<TRIPOS>ATOM
      1 N         139.7254  139.6019  164.1760 N.3     1  UNL1       -0.2647
      2 C         138.4256  140.2868  163.8740 C.3     1  UNL1        0.1037
      3 C         138.2844  141.1126  162.6297 C.3     1  UNL1        0.1470
      4 C         138.1432  141.9384  161.3855 C.3     1  UNL1        0.1035
      5 N         139.3018  142.0792  160.4433 N.3     1  UNL1       -0.2673
      6 C         140.6017  141.3942  160.7454 C.3     1  UNL1        0.1035
      7 C         140.7429  140.5685  161.9896 C.3     1  UNL1        0.1470
      8 C         140.8841  139.7427  163.2338 C.3     1  UNL1        0.1037
      9 O         139.4431  141.2534  161.6876 O.3     1  UNL1       -0.3530
     10 C         139.8667  138.7761  165.4203 C.3     1  UNL1        0.0993
     11 C         140.8776  140.7567  169.3325 C.ar    1  UNL1        0.0684
     12 C         141.9646  140.4437  168.3474 C.ar    1  UNL1        0.0100
     13 C         141.6276  139.7835  167.0433 C.ar    1  UNL1       -0.0022
     14 C         140.2037  139.4363  166.7243 C.ar    1  UNL1       -0.0061
     15 C         139.1166  139.7493  167.7095 C.ar    1  UNL1       -0.0022
     16 C         139.4536  140.4095  169.0136 C.ar    1  UNL1        0.0100
     17 N         141.5515  142.0771  171.9407 N.1     1  UNL1       -0.1908
     18 C         141.2146  141.4168  170.6366 C.1     1  UNL1        0.1004
     19 C         139.1606  142.9049  159.1990 C.3     1  UNL1        0.0913
     20 C         140.0870  144.0594  158.9559 C.3     1  UNL1        0.1084
     21 N         139.8583  145.3652  159.6576 N.3     1  UNL1       -0.1816
     22 H         138.8483  145.4957  159.7151 H       1  UNL1        0.1485
     23 S         140.4019  145.5795  161.0391 S.O2    1  UNL1        0.0451
     24 O         141.6606  144.8593  160.6555 O.2     1  UNL1       -0.1572
     25 O         139.1433  146.2996  161.4227 O.2     1  UNL1       -0.1572
     26 C         140.9455  145.7938  162.4207 C.3     1  UNL1        0.1952
     27 C         140.5927  144.8384  163.5220 C.ar    1  UNL1        0.0029
     28 C         139.2137  144.8507  164.1123 C.ar    1  UNL1       -0.0025
     29 C         138.8609  143.8954  165.2136 C.ar    1  UNL1       -0.0003
     30 C         139.8870  142.9278  165.7246 C.ar    1  UNL1       -0.0000
     31 C         141.2659  142.9156  165.1343 C.ar    1  UNL1       -0.0003
     32 C         141.6187  143.8710  164.0330 C.ar    1  UNL1       -0.0025
@<TRIPOS>BOND
     1    17    18    3
     2    18    11    1
     3    11    12   ar
     4    12    13   ar
     5    13    14   ar
     6    14    10    1
     7    10     1    1
     8     1     2    1
     9     2     3    1
    10     3     4    1
    11     4     5    1
    12     5    19    1
    13    19    20    1
    14    20    21    1
    15    21    23    1
    16    23    24    2
    17    23    25    2
    18    23    26    1
    19    26    27    1
    20    27    28   ar
    21    28    29   ar
    22    29    30   ar
    23    30    31   ar
    24    31    32   ar
    25     5     6    1
    26     6     7    1
    27     7     8    1
    28     7     9    1
    29    14    15   ar
    30    15    16   ar
    31    16    11   ar
    32     8     1    1
    33     9     3    1
    34    32    27   ar
    35    21    22    1
@<TRIPOS>MOLECULE
*****
 32 35 0 0 0
SMALL
GASTEIGER

@<TRIPOS>ATOM
      1 N         143.2882  140.1569  164.5598 N.3     1  UNL1       -0.2647
      2 C         144.4443  140.9971  164.1043 C.3     1  UNL1        0.1037
      3 C         144.3472  141.7768  162.8266 C.3     1  UNL1        0.1470
      4 C         144.2502  142.5566  161.5488 C.3     1  UNL1        0.1035
      5 N         142.9970  142.4961  160.7267 N.3     1  UNL1       -0.2673
      6 C         141.8409  141.6559  161.1822 C.3     1  UNL1        0.1035
      7 C         141.9380  140.8761  162.4599 C.3     1  UNL1        0.1470
      8 C         142.0351  140.0964  163.7376 C.3     1  UNL1        0.1037
      9 O         143.0941  141.7163  162.0044 O.3     1  UNL1       -0.3530
     10 C         143.3853  139.3771  165.8376 C.3     1  UNL1        0.0993
     11 C         141.6585  141.0598  169.6371 C.ar    1  UNL1        0.0684
     12 C         142.0868  139.6235  169.5797 C.ar    1  UNL1        0.0100
     13 C         142.6624  139.0625  168.3131 C.ar    1  UNL1       -0.0022
     14 C         142.8097  139.9380  167.1041 C.ar    1  UNL1       -0.0061
     15 C         142.3813  141.3744  167.1615 C.ar    1  UNL1       -0.0022
     16 C         141.8058  141.9353  168.4280 C.ar    1  UNL1        0.0100
     17 N         140.5073  142.1817  172.1701 N.1     1  UNL1       -0.1908
     18 C         141.0829  141.6207  170.9036 C.1     1  UNL1        0.1004
     19 C         142.9000  143.2758  159.4490 C.3     1  UNL1        0.0913
     20 C         141.8267  144.3104  159.2813 C.3     1  UNL1        0.1084
     21 N         141.6965  145.4242  160.2775 N.3     1  UNL1       -0.1816
     22 H         141.6517  146.2925  159.7442 H       1  UNL1        0.1485
     23 S         140.5413  145.4435  161.2341 S.O2    1  UNL1        0.0451
     24 O         139.6378  145.9148  160.1335 O.2     1  UNL1       -0.1572
     25 O         141.4448  144.9721  162.3347 O.2     1  UNL1       -0.1572
     26 C         139.3860  145.4627  162.1908 C.3     1  UNL1        0.1952
     27 C         138.7514  144.1753  162.6264 C.ar    1  UNL1        0.0029
     28 C         138.5165  143.0798  161.6289 C.ar    1  UNL1       -0.0025
     29 C         137.8819  141.7924  162.0646 C.ar    1  UNL1       -0.0003
     30 C         137.4823  141.6004  163.4976 C.ar    1  UNL1       -0.0000
     31 C         137.7173  142.6958  164.4949 C.ar    1  UNL1       -0.0003
     32 C         138.3518  143.9833  164.0593 C.ar    1  UNL1       -0.0025
@<TRIPOS>BOND
     1    17    18    3
     2    18    11    1
     3    11    12   ar
     4    12    13   ar
     5    13    14   ar
     6    14    10    1
     7    10     1    1
     8     1     2    1
     9     2     3    1
    10     3     4    1
    11     4     5    1
    12     5    19    1
    13    19    20    1
    14    20    21    1
    15    21    23    1
    16    23    24    2
    17    23    25    2
    18    23    26    1
    19    26    27    1
    20    27    28   ar
    21    28    29   ar
    22    29    30   ar
    23    30    31   ar
    24    31    32   ar
    25     5     6    1
    26     6     7    1
    27     7     8    1
    28     7     9    1
    29    14    15   ar
    30    15    16   ar
    31    16    11   ar
    32     8     1    1
    33     9     3    1
    34    32    27   ar
    35    21    22    1
@<TRIPOS>MOLECULE
*****
 32 35 0 0 0
SMALL
GASTEIGER

@<TRIPOS>ATOM
      1 N         139.0451  139.2814  162.7578 N.3     1  UNL1       -0.2647
      2 C         140.2444  139.1183  161.8717 C.3     1  UNL1        0.1037
      3 C         140.4455  140.0392  160.7049 C.3     1  UNL1        0.1470
      4 C         140.6468  140.9601  159.5381 C.3     1  UNL1        0.1035
      5 N         139.6487  142.0441  159.2573 N.3     1  UNL1       -0.2673
      6 C         138.4494  142.2071  160.1434 C.3     1  UNL1        0.1035
      7 C         138.2482  141.2862  161.3102 C.3     1  UNL1        0.1470
      8 C         138.0470  140.3654  162.4770 C.3     1  UNL1        0.1037
      9 O         139.4475  141.1232  160.4242 O.3     1  UNL1       -0.3530
     10 C         138.8439  138.3605  163.9246 C.3     1  UNL1        0.0993
     11 C         139.3908  139.8923  168.1204 C.ar    1  UNL1        0.0684
     12 C         138.1527  139.1276  167.7566 C.ar    1  UNL1        0.0100
     13 C         137.9704  138.6170  166.3580 C.ar    1  UNL1       -0.0022
     14 C         139.0262  138.8711  165.3232 C.ar    1  UNL1       -0.0061
     15 C         140.2643  139.6358  165.6870 C.ar    1  UNL1       -0.0022
     16 C         140.4466  140.1464  167.0856 C.ar    1  UNL1        0.0100
     17 N         139.7555  140.9135  170.9176 N.1     1  UNL1       -0.1908
     18 C         139.5731  140.4029  169.5189 C.1     1  UNL1        0.1004
     19 C         139.8499  142.9650  158.0905 C.3     1  UNL1        0.0913
     20 C         140.2158  144.4010  158.3228 C.3     1  UNL1        0.1084
     21 N         141.2717  144.7527  159.3284 N.3     1  UNL1       -0.1816
     22 H         141.8692  145.4562  158.8942 H       1  UNL1        0.1485
     23 S         140.8781  145.2890  160.6728 S.O2    1  UNL1        0.0451
     24 O         142.1463  144.7453  161.2610 O.2     1  UNL1       -0.1572
     25 O         139.6100  145.8328  160.0846 O.2     1  UNL1       -0.1572
     26 C         140.4845  145.8253  162.0172 C.3     1  UNL1        0.1952
     27 C         139.9227  144.9024  163.0577 C.ar    1  UNL1        0.0029
     28 C         140.8303  144.2805  164.0773 C.ar    1  UNL1       -0.0025
     29 C         140.2686  143.3575  165.1178 C.ar    1  UNL1       -0.0003
     30 C         138.7992  143.0565  165.1386 C.ar    1  UNL1       -0.0000
     31 C         137.8916  143.6784  164.1191 C.ar    1  UNL1       -0.0003
     32 C         138.4534  144.6014  163.0786 C.ar    1  UNL1       -0.0025
@<TRIPOS>BOND
     1    17    18    3
     2    18    11    1
     3    11    12   ar
     4    12    13   ar
     5    13    14   ar
     6    14    10    1
     7    10     1    1
     8     1     2    1
     9     2     3    1
    10     3     4    1
    11     4     5    1
    12     5    19    1
    13    19    20    1
    14    20    21    1
    15    21    23    1
    16    23    24    2
    17    23    25    2
    18    23    26    1
    19    26    27    1
    20    27    28   ar
    21    28    29   ar
    22    29    30   ar
    23    30    31   ar
    24    31    32   ar
    25     5     6    1
    26     6     7    1
    27     7     8    1
    28     7     9    1
    29    14    15   ar
    30    15    16   ar
    31    16    11   ar
    32     8     1    1
    33     9     3    1
    34    32    27   ar
    35    21    22    1
@<TRIPOS>MOLECULE
*****
 32 35 0 0 0
SMALL
GASTEIGER

@<TRIPOS>ATOM
      1 N         138.6077  139.2481  165.8447 N.3     1  UNL1       -0.2647
      2 C         139.0455  138.0811  165.0101 C.3     1  UNL1        0.1037
      3 C         138.9376  138.1457  163.5154 C.3     1  UNL1        0.1470
      4 C         138.8298  138.2101  162.0207 C.3     1  UNL1        0.1035
      5 N         138.2842  139.4416  161.3605 N.3     1  UNL1       -0.2673
      6 C         137.8464  140.6086  162.1952 C.3     1  UNL1        0.1035
      7 C         137.9542  140.5441  163.6898 C.3     1  UNL1        0.1470
      8 C         138.0621  140.4796  165.1845 C.3     1  UNL1        0.1037
      9 O         138.3920  139.3771  162.8553 O.3     1  UNL1       -0.3530
     10 C         138.7155  139.1836  167.3395 C.3     1  UNL1        0.0993
     11 C         141.4529  142.0109  169.5219 C.ar    1  UNL1        0.0684
     12 C         141.7417  141.6364  168.0985 C.ar    1  UNL1        0.0100
     13 C         140.8292  140.6940  167.3709 C.ar    1  UNL1       -0.0022
     14 C         139.6280  140.1260  168.0669 C.ar    1  UNL1       -0.0061
     15 C         139.3392  140.5006  169.4905 C.ar    1  UNL1       -0.0022
     16 C         140.2516  141.4430  170.2179 C.ar    1  UNL1        0.0100
     17 N         143.2779  143.8958  170.9768 N.1     1  UNL1       -0.1908
     18 C         142.3653  142.9533  170.2494 C.1     1  UNL1        0.1004
     19 C         138.1763  139.5061  159.8658 C.3     1  UNL1        0.0913
     20 C         138.2206  140.8328  159.1672 C.3     1  UNL1        0.1084
     21 N         139.5040  141.6070  159.1085 N.3     1  UNL1       -0.1816
     22 H         139.6240  141.9051  158.1405 H       1  UNL1        0.1485
     23 S         139.6836  142.8269  159.9626 S.O2    1  UNL1        0.0451
     24 O         141.1079  142.4351  160.2227 O.2     1  UNL1       -0.1572
     25 O         138.2593  143.2188  159.7025 O.2     1  UNL1       -0.1572
     26 C         139.8632  144.0469  160.8168 C.3     1  UNL1        0.1952
     27 C         139.6214  143.9696  162.2952 C.ar    1  UNL1        0.0029
     28 C         138.2759  144.3254  162.8547 C.ar    1  UNL1       -0.0025
     29 C         138.0341  144.2481  164.3330 C.ar    1  UNL1       -0.0003
     30 C         139.1378  143.8149  165.2519 C.ar    1  UNL1       -0.0000
     31 C         140.4833  143.4591  164.6923 C.ar    1  UNL1       -0.0003
     32 C         140.7251  143.5365  163.2140 C.ar    1  UNL1       -0.0025
@<TRIPOS>BOND
     1    17    18    3
     2    18    11    1
     3    11    12   ar
     4    12    13   ar
     5    13    14   ar
     6    14    10    1
     7    10     1    1
     8     1     2    1
     9     2     3    1
    10     3     4    1
    11     4     5    1
    12     5    19    1
    13    19    20    1
    14    20    21    1
    15    21    23    1
    16    23    24    2
    17    23    25    2
    18    23    26    1
    19    26    27    1
    20    27    28   ar
    21    28    29   ar
    22    29    30   ar
    23    30    31   ar
    24    31    32   ar
    25     5     6    1
    26     6     7    1
    27     7     8    1
    28     7     9    1
    29    14    15   ar
    30    15    16   ar
    31    16    11   ar
    32     8     1    1
    33     9     3    1
    34    32    27   ar
    35    21    22    1
@<TRIPOS>MOLECULE
*****
 32 35 0 0 0
SMALL
GASTEIGER

@<TRIPOS>ATOM
      1 N         143.0167  140.2641  164.7434 N.3     1  UNL1       -0.2647
      2 C         144.1277  141.1482  164.2597 C.3     1  UNL1        0.1037
      3 C         144.1311  141.6413  162.8431 C.3     1  UNL1        0.1470
      4 C         144.1345  142.1344  161.4264 C.3     1  UNL1        0.1035
      5 N         143.0269  141.7433  160.4935 N.3     1  UNL1       -0.2673
      6 C         141.9159  140.8591  160.9773 C.3     1  UNL1        0.1035
      7 C         141.9126  140.3661  162.3939 C.3     1  UNL1        0.1470
      8 C         141.9092  139.8730  163.8105 C.3     1  UNL1        0.1037
      9 O         143.0235  141.2502  161.9102 O.3     1  UNL1       -0.3530
     10 C         143.0133  139.7710  166.1601 C.3     1  UNL1        0.0993
     11 C         140.6540  141.9661  169.3009 C.ar    1  UNL1        0.0684
     12 C         140.1024  140.7132  168.6878 C.ar    1  UNL1        0.0100
     13 C         140.8889  139.9815  167.6408 C.ar    1  UNL1       -0.0022
     14 C         142.2269  140.5027  167.2070 C.ar    1  UNL1       -0.0061
     15 C         142.7784  141.7556  167.8202 C.ar    1  UNL1       -0.0022
     16 C         141.9920  142.4873  168.8671 C.ar    1  UNL1        0.0100
     17 N         139.0810  143.4296  171.3948 N.1     1  UNL1       -0.1908
     18 C         139.8676  142.6978  170.3478 C.1     1  UNL1        0.1004
     19 C         143.0303  142.2364  159.0769 C.3     1  UNL1        0.0913
     20 C         142.2849  143.4872  158.7163 C.3     1  UNL1        0.1084
     21 N         140.8568  143.6583  159.1419 N.3     1  UNL1       -0.1816
     22 H         140.4959  142.7258  159.3435 H       1  UNL1        0.1485
     23 S         140.5250  144.5164  160.3266 S.O2    1  UNL1        0.0451
     24 O         141.8610  145.1889  160.2136 O.2     1  UNL1       -0.1572
     25 O         139.1890  143.8439  160.4395 O.2     1  UNL1       -0.1572
     26 C         140.1932  145.3746  161.5113 C.3     1  UNL1        0.1952
     27 C         140.1255  144.7679  162.8814 C.ar    1  UNL1        0.0029
     28 C         138.8982  144.9529  163.7239 C.ar    1  UNL1       -0.0025
     29 C         138.8306  144.3462  165.0940 C.ar    1  UNL1       -0.0003
     30 C         139.9903  143.5545  165.6218 C.ar    1  UNL1       -0.0000
     31 C         141.2175  143.3695  164.7794 C.ar    1  UNL1       -0.0003
     32 C         141.2851  143.9762  163.4092 C.ar    1  UNL1       -0.0025
@<TRIPOS>BOND
     1    17    18    3
     2    18    11    1
     3    11    12   ar
     4    12    13   ar
     5    13    14   ar
     6    14    10    1
     7    10     1    1
     8     1     2    1
     9     2     3    1
    10     3     4    1
    11     4     5    1
    12     5    19    1
    13    19    20    1
    14    20    21    1
    15    21    23    1
    16    23    24    2
    17    23    25    2
    18    23    26    1
    19    26    27    1
    20    27    28   ar
    21    28    29   ar
    22    29    30   ar
    23    30    31   ar
    24    31    32   ar
    25     5     6    1
    26     6     7    1
    27     7     8    1
    28     7     9    1
    29    14    15   ar
    30    15    16   ar
    31    16    11   ar
    32     8     1    1
    33     9     3    1
    34    32    27   ar
    35    21    22    1
@<TRIPOS>MOLECULE
*****
 32 35 0 0 0
SMALL
GASTEIGER

@<TRIPOS>ATOM
      1 N         138.7449  139.2160  165.7839 N.3     1  UNL1       -0.2647
      2 C         138.1659  140.3280  164.9604 C.3     1  UNL1        0.1037
      3 C         138.2310  140.2646  163.4631 C.3     1  UNL1        0.1470
      4 C         138.2961  140.2014  161.9658 C.3     1  UNL1        0.1035
      5 N         138.9403  139.0261  161.2922 N.3     1  UNL1       -0.2673
      6 C         139.5193  137.9141  162.1158 C.3     1  UNL1        0.1035
      7 C         139.4541  137.9774  163.6130 C.3     1  UNL1        0.1470
      8 C         139.3890  138.0407  165.1102 C.3     1  UNL1        0.1037
      9 O         138.8751  139.0894  162.7895 O.3     1  UNL1       -0.3530
     10 C         138.6797  139.2793  167.2812 C.3     1  UNL1        0.0993
     11 C         141.4444  142.0188  169.5399 C.ar    1  UNL1        0.0684
     12 C         141.7444  141.6589  168.1150 C.ar    1  UNL1        0.0100
     13 C         140.8229  140.7457  167.3620 C.ar    1  UNL1       -0.0022
     14 C         139.6013  140.1924  168.0341 C.ar    1  UNL1       -0.0061
     15 C         139.3012  140.5524  169.4590 C.ar    1  UNL1       -0.0022
     16 C         140.2228  141.4656  170.2119 C.ar    1  UNL1        0.0100
     17 N         143.2875  143.8452  171.0456 N.1     1  UNL1       -0.1908
     18 C         142.3659  142.9320  170.2927 C.1     1  UNL1        0.1004
     19 C         139.0054  138.9628  159.7950 C.3     1  UNL1        0.0913
     20 C         140.2798  139.3105  159.0843 C.3     1  UNL1        0.1084
     21 N         141.4248  138.3415  159.0805 N.3     1  UNL1       -0.1816
     22 H         141.6839  138.1955  158.1048 H       1  UNL1        0.1485
     23 S         142.6881  138.6705  159.8193 S.O2    1  UNL1        0.0451
     24 O         143.1022  137.2303  159.7526 O.2     1  UNL1       -0.1572
     25 O         142.2740  140.1106  159.8861 O.2     1  UNL1       -0.1572
     26 C         143.9514  138.9995  160.5582 C.3     1  UNL1        0.1952
     27 C         143.9048  139.2984  162.0274 C.ar    1  UNL1        0.0029
     28 C         143.0887  138.4348  162.9430 C.ar    1  UNL1       -0.0025
     29 C         143.0421  138.7337  164.4121 C.ar    1  UNL1       -0.0003
     30 C         143.8116  139.8963  164.9657 C.ar    1  UNL1       -0.0000
     31 C         144.6277  140.7599  164.0501 C.ar    1  UNL1       -0.0003
     32 C         144.6743  140.4609  162.5810 C.ar    1  UNL1       -0.0025
@<TRIPOS>BOND
     1    17    18    3
     2    18    11    1
     3    11    12   ar
     4    12    13   ar
     5    13    14   ar
     6    14    10    1
     7    10     1    1
     8     1     2    1
     9     2     3    1
    10     3     4    1
    11     4     5    1
    12     5    19    1
    13    19    20    1
    14    20    21    1
    15    21    23    1
    16    23    24    2
    17    23    25    2
    18    23    26    1
    19    26    27    1
    20    27    28   ar
    21    28    29   ar
    22    29    30   ar
    23    30    31   ar
    24    31    32   ar
    25     5     6    1
    26     6     7    1
    27     7     8    1
    28     7     9    1
    29    14    15   ar
    30    15    16   ar
    31    16    11   ar
    32     8     1    1
    33     9     3    1
    34    32    27   ar
    35    21    22    1
@<TRIPOS>MOLECULE
*****
 32 35 0 0 0
SMALL
GASTEIGER

@<TRIPOS>ATOM
      1 N         142.6577  138.5233  164.9642 N.3     1  UNL1       -0.2647
      2 C         143.2188  139.3597  163.8526 C.3     1  UNL1        0.1037
      3 C         142.5280  139.3994  162.5218 C.3     1  UNL1        0.1470
      4 C         141.8372  139.4390  161.1908 C.3     1  UNL1        0.1035
      5 N         140.5854  138.6423  160.9715 N.3     1  UNL1       -0.2673
      6 C         140.0244  137.8058  162.0831 C.3     1  UNL1        0.1035
      7 C         140.7151  137.7661  163.4140 C.3     1  UNL1        0.1470
      8 C         141.4059  137.7265  164.7448 C.3     1  UNL1        0.1037
      9 O         141.2762  138.6026  162.3025 O.3     1  UNL1       -0.3530
     10 C         143.3485  138.4836  166.2951 C.3     1  UNL1        0.0993
     11 C         141.6329  140.7420  169.7888 C.ar    1  UNL1        0.0684
     12 C         141.4915  141.2895  168.3995 C.ar    1  UNL1        0.0100
     13 C         142.0634  140.5367  167.2349 C.ar    1  UNL1       -0.0022
     14 C         142.7766  139.2364  167.4597 C.ar    1  UNL1       -0.0061
     15 C         142.9180  138.6889  168.8491 C.ar    1  UNL1       -0.0022
     16 C         142.3461  139.4417  170.0136 C.ar    1  UNL1        0.0100
     17 N         140.4891  142.2477  172.1180 N.1     1  UNL1       -0.1908
     18 C         141.0610  141.4948  170.9534 C.1     1  UNL1        0.1004
     19 C         139.8946  138.6819  159.6407 C.3     1  UNL1        0.0913
     20 C         138.7666  139.6433  159.4094 C.3     1  UNL1        0.1084
     21 N         137.9390  140.1205  160.5658 N.3     1  UNL1       -0.1816
     22 H         138.1548  139.5102  161.3541 H       1  UNL1        0.1485
     23 S         138.0805  141.5303  161.0581 S.O2    1  UNL1        0.0451
     24 O         137.1375  141.2312  162.1856 O.2     1  UNL1       -0.1572
     25 O         139.0235  141.8294  159.9307 O.2     1  UNL1       -0.1572
     26 C         138.2221  142.9401  161.5505 C.3     1  UNL1        0.1952
     27 C         138.7783  143.2046  162.9182 C.ar    1  UNL1        0.0029
     28 C         140.0221  142.4990  163.3713 C.ar    1  UNL1       -0.0025
     29 C         140.5784  142.7635  164.7391 C.ar    1  UNL1       -0.0003
     30 C         139.8908  143.7335  165.6537 C.ar    1  UNL1       -0.0000
     31 C         138.6471  144.4390  165.2005 C.ar    1  UNL1       -0.0003
     32 C         138.0909  144.1746  163.8328 C.ar    1  UNL1       -0.0025
@<TRIPOS>BOND
     1    17    18    3
     2    18    11    1
     3    11    12   ar
     4    12    13   ar
     5    13    14   ar
     6    14    10    1
     7    10     1    1
     8     1     2    1
     9     2     3    1
    10     3     4    1
    11     4     5    1
    12     5    19    1
    13    19    20    1
    14    20    21    1
    15    21    23    1
    16    23    24    2
    17    23    25    2
    18    23    26    1
    19    26    27    1
    20    27    28   ar
    21    28    29   ar
    22    29    30   ar
    23    30    31   ar
    24    31    32   ar
    25     5     6    1
    26     6     7    1
    27     7     8    1
    28     7     9    1
    29    14    15   ar
    30    15    16   ar
    31    16    11   ar
    32     8     1    1
    33     9     3    1
    34    32    27   ar
    35    21    22    1
@<TRIPOS>MOLECULE
*****
 32 35 0 0 0
SMALL
GASTEIGER

@<TRIPOS>ATOM
      1 N         138.7169  139.7538  163.7727 N.3     1  UNL1       -0.2647
      2 C         139.5927  139.2647  162.6576 C.3     1  UNL1        0.1037
      3 C         139.6747  140.0372  161.3744 C.3     1  UNL1        0.1470
      4 C         139.7567  140.8097  160.0912 C.3     1  UNL1        0.1035
      5 N         138.9629  142.0713  159.9233 N.3     1  UNL1       -0.2673
      6 C         138.0870  142.5604  161.0385 C.3     1  UNL1        0.1035
      7 C         138.0050  141.7879  162.3217 C.3     1  UNL1        0.1470
      8 C         137.9231  141.0154  163.6048 C.3     1  UNL1        0.1037
      9 O         138.8809  141.2988  161.2065 O.3     1  UNL1       -0.3530
     10 C         138.6349  138.9813  165.0560 C.3     1  UNL1        0.0993
     11 C         141.5337  139.8408  168.3889 C.ar    1  UNL1        0.0684
     12 C         142.0406  139.3824  167.0537 C.ar    1  UNL1        0.0100
     13 C         141.0743  139.0959  165.9426 C.ar    1  UNL1       -0.0022
     14 C         139.6012  139.2678  166.1669 C.ar    1  UNL1       -0.0061
     15 C         139.0943  139.7263  167.5022 C.ar    1  UNL1       -0.0022
     16 C         140.0606  140.0128  168.6132 C.ar    1  UNL1        0.0100
     17 N         143.4662  140.4138  170.6109 N.1     1  UNL1       -0.1908
     18 C         142.4999  140.1273  169.4998 C.1     1  UNL1        0.1004
     19 C         139.0448  142.8438  158.6401 C.3     1  UNL1        0.0913
     20 C         139.7472  144.1688  158.6059 C.3     1  UNL1        0.1084
     21 N         141.0493  144.3463  159.3291 N.3     1  UNL1       -0.1816
     22 H         141.6313  144.9465  158.7447 H       1  UNL1        0.1485
     23 S         141.0670  144.9361  160.7081 S.O2    1  UNL1        0.0451
     24 O         142.4338  144.3619  160.9362 O.2     1  UNL1       -0.1572
     25 O         139.7002  145.5103  160.4800 O.2     1  UNL1       -0.1572
     26 C         141.0846  145.5259  162.0872 C.3     1  UNL1        0.1952
     27 C         140.6433  144.7025  163.2608 C.ar    1  UNL1        0.0029
     28 C         139.3563  145.0240  163.9610 C.ar    1  UNL1       -0.0025
     29 C         138.9150  144.2005  165.1346 C.ar    1  UNL1       -0.0003
     30 C         139.7608  143.0556  165.6079 C.ar    1  UNL1       -0.0000
     31 C         141.0477  142.7342  164.9076 C.ar    1  UNL1       -0.0003
     32 C         141.4890  143.5576  163.7340 C.ar    1  UNL1       -0.0025
@<TRIPOS>BOND
     1    17    18    3
     2    18    11    1
     3    11    12   ar
     4    12    13   ar
     5    13    14   ar
     6    14    10    1
     7    10     1    1
     8     1     2    1
     9     2     3    1
    10     3     4    1
    11     4     5    1
    12     5    19    1
    13    19    20    1
    14    20    21    1
    15    21    23    1
    16    23    24    2
    17    23    25    2
    18    23    26    1
    19    26    27    1
    20    27    28   ar
    21    28    29   ar
    22    29    30   ar
    23    30    31   ar
    24    31    32   ar
    25     5     6    1
    26     6     7    1
    27     7     8    1
    28     7     9    1
    29    14    15   ar
    30    15    16   ar
    31    16    11   ar
    32     8     1    1
    33     9     3    1
    34    32    27   ar
    35    21    22    1
@<TRIPOS>MOLECULE
*****
 32 35 0 0 0
SMALL
GASTEIGER

@<TRIPOS>ATOM
      1 N         138.7601  139.5677  165.8214 N.3     1  UNL1       -0.2647
      2 C         138.1580  140.8183  165.2526 C.3     1  UNL1        0.1037
      3 C         137.8640  140.9085  163.7845 C.3     1  UNL1        0.1470
      4 C         137.5700  140.9989  162.3163 C.3     1  UNL1        0.1035
      5 N         137.8782  139.8387  161.4170 N.3     1  UNL1       -0.2673
      6 C         138.4804  138.5881  161.9858 C.3     1  UNL1        0.1035
      7 C         138.7744  138.4978  163.4539 C.3     1  UNL1        0.1470
      8 C         139.0683  138.4075  164.9220 C.3     1  UNL1        0.1037
      9 O         138.1722  139.7483  162.8852 O.3     1  UNL1       -0.3530
     10 C         139.0541  139.4774  167.2896 C.3     1  UNL1        0.0993
     11 C         142.6035  141.6427  169.0109 C.ar    1  UNL1        0.0684
     12 C         141.2139  142.0556  169.3962 C.ar    1  UNL1        0.0100
     13 C         140.0307  141.3338  168.8224 C.ar    1  UNL1       -0.0022
     14 C         140.2372  140.1991  167.8633 C.ar    1  UNL1       -0.0061
     15 C         141.6269  139.7862  167.4780 C.ar    1  UNL1       -0.0022
     16 C         142.8100  140.5080  168.0518 C.ar    1  UNL1        0.0100
     17 N         144.9698  143.0862  170.1585 N.1     1  UNL1       -0.1908
     18 C         143.7866  142.3645  169.5847 C.1     1  UNL1        0.1004
     19 C         137.5843  139.9289  159.9489 C.3     1  UNL1        0.0913
     20 C         138.6261  140.4546  159.0063 C.3     1  UNL1        0.1084
     21 N         138.8475  141.9329  158.8819 N.3     1  UNL1       -0.1816
     22 H         137.9675  142.3845  159.1310 H       1  UNL1        0.1485
     23 S         139.9208  142.6010  159.6892 S.O2    1  UNL1        0.0451
     24 O         138.8782  143.3983  160.4154 O.2     1  UNL1       -0.1572
     25 O         140.9633  141.8037  158.9631 O.2     1  UNL1       -0.1572
     26 C         140.9941  143.2691  160.4966 C.3     1  UNL1        0.1952
     27 C         141.1597  142.9320  161.9488 C.ar    1  UNL1        0.0029
     28 C         141.1550  144.0237  162.9775 C.ar    1  UNL1       -0.0025
     29 C         141.3207  143.6866  164.4297 C.ar    1  UNL1       -0.0003
     30 C         141.4910  142.2577  164.8532 C.ar    1  UNL1       -0.0000
     31 C         141.4957  141.1660  163.8246 C.ar    1  UNL1       -0.0003
     32 C         141.3301  141.5031  162.3724 C.ar    1  UNL1       -0.0025
@<TRIPOS>BOND
     1    17    18    3
     2    18    11    1
     3    11    12   ar
     4    12    13   ar
     5    13    14   ar
     6    14    10    1
     7    10     1    1
     8     1     2    1
     9     2     3    1
    10     3     4    1
    11     4     5    1
    12     5    19    1
    13    19    20    1
    14    20    21    1
    15    21    23    1
    16    23    24    2
    17    23    25    2
    18    23    26    1
    19    26    27    1
    20    27    28   ar
    21    28    29   ar
    22    29    30   ar
    23    30    31   ar
    24    31    32   ar
    25     5     6    1
    26     6     7    1
    27     7     8    1
    28     7     9    1
    29    14    15   ar
    30    15    16   ar
    31    16    11   ar
    32     8     1    1
    33     9     3    1
    34    32    27   ar
    35    21    22    1
