@<TRIPOS>MOLECULE
*****
 40 43 0 0 0
SMALL
GASTEIGER

@<TRIPOS>ATOM
      1 C         142.9271  140.0949  167.8079 C.ar    1  UNL1        0.0807
      2 C         142.9025  141.1543  166.7462 C.ar    1  UNL1        0.0194
      3 C         143.2991  140.8159  165.3398 C.ar    1  UNL1        0.0375
      4 C         143.7203  139.4181  164.9949 C.ar    1  UNL1        0.1559
      5 N         143.7449  138.3588  166.0566 N.ar    1  UNL1       -0.1331
      6 N         143.3483  138.6972  167.4630 N.ar    1  UNL1       -0.1512
      7 N         144.1169  139.0798  163.5884 N.am    1  UNL1       -0.2676
      8 C         143.1575  138.3535  162.6928 C.2     1  UNL1        0.2332
      9 O         141.8016  137.9657  163.2036 O.2     1  UNL1       -0.2743
     10 H         145.0068  139.3343  163.2531 H       1  UNL1        0.1563
     11 C         143.5541  138.0152  161.2862 C.3     1  UNL1        0.1311
     12 C         143.5397  139.0770  160.2269 C.ar    1  UNL1        0.0708
     13 C         143.6030  140.5245  160.6149 C.ar    1  UNL1        0.0521
     14 C         143.5886  141.5864  159.5556 C.ar    1  UNL1        0.1407
     15 C         143.5109  141.2007  158.1080 C.ar    1  UNL1        0.0516
     16 C         143.4476  139.7531  157.7200 C.ar    1  UNL1        0.0620
     17 C         143.3698  139.3674  156.2725 C.3     1  UNL1        0.0522
     18 N         143.4620  138.6913  158.7794 N.ar    1  UNL1       -0.2533
     19 O         143.6520  143.0339  159.9437 O.3     1  UNL1       -0.4787
     20 C         143.4791  143.4338  161.3789 C.3     1  UNL1        0.1768
     21 C         144.4094  143.7947  162.4989 C.3     1  UNL1        0.1103
     22 C         143.2346  143.9995  163.4088 C.3     1  UNL1        0.2709
     23 F         142.0599  144.2042  164.3188 F       1  UNL1       -0.2041
     24 F         144.1650  144.3604  164.5287 F       1  UNL1       -0.2041
     25 C         142.3043  143.6386  162.2888 C.3     1  UNL1        0.1103
     26 C         142.5305  140.4333  169.2144 C.3     1  UNL1        0.0505
     27 C         141.7005  139.4713  170.0117 C.3     1  UNL1        0.0437
     28 C         140.2593  139.7782  170.2926 C.3     1  UNL1        0.1856
     29 F         139.6212  139.2879  171.5585 F       1  UNL1       -0.2351
     30 C         139.4564  140.5751  169.3077 C.3     1  UNL1        0.1643
     31 C         138.5578  139.3474  165.7370 C.ar    1  UNL1        0.1762
     32 C         139.3350  140.2399  166.6586 C.ar    1  UNL1        0.1223
     33 N         138.9277  139.9199  168.0664 N.ar    1  UNL1       -0.2272
     34 N         137.8988  138.8296  168.0148 N.ar    1  UNL1       -0.0636
     35 N         137.6702  138.4757  166.5752 N.ar    1  UNL1       -0.1241
     36 C         138.6831  138.0084  162.0031 C.3     1  UNL1        0.1110
     37 N         138.5891  138.0262  163.5001 N.am    1  UNL1       -0.2978
     38 C         138.6518  139.3295  164.2400 C.2     1  UNL1        0.2670
     39 O         138.8085  140.6149  163.4830 O.2     1  UNL1       -0.2684
     40 H         138.4863  137.1826  163.9969 H       1  UNL1        0.1498
@<TRIPOS>BOND
     1    36    37    1
     2    37    38   am
     3    38    39    2
     4    38    31    1
     5    31    32   ar
     6    32    33   ar
     7    33    30    1
     8    30    28    1
     9    28    29    1
    10    28    27    1
    11    27    26    1
    12    26     1    1
    13     1     2   ar
    14     2     3   ar
    15     3     4   ar
    16     4     7    1
    17     7     8   am
    18     8     9    2
    19     8    11    1
    20    11    12    1
    21    12    13   ar
    22    13    14   ar
    23    14    19    1
    24    19    20    1
    25    20    21    1
    26    21    22    1
    27    22    23    1
    28    22    24    1
    29    22    25    1
    30    14    15   ar
    31    15    16   ar
    32    16    17    1
    33    16    18   ar
    34     4     5   ar
    35     5     6   ar
    36    33    34   ar
    37    34    35   ar
    38    35    31   ar
    39     6     1   ar
    40    18    12   ar
    41    25    20    1
    42    37    40    1
    43     7    10    1
@<TRIPOS>MOLECULE
*****
 40 43 0 0 0
SMALL
GASTEIGER

@<TRIPOS>ATOM
      1 C         142.9724  140.8159  168.1595 C.ar    1  UNL1        0.0807
      2 C         143.1875  142.2340  167.7204 C.ar    1  UNL1        0.0194
      3 C         143.2418  142.5665  166.2588 C.ar    1  UNL1        0.0375
      4 C         143.0810  141.4810  165.2362 C.ar    1  UNL1        0.1559
      5 N         142.8659  140.0629  165.6752 N.ar    1  UNL1       -0.1331
      6 N         142.8116  139.7304  167.1368 N.ar    1  UNL1       -0.1512
      7 N         143.1353  141.8136  163.7745 N.am    1  UNL1       -0.2676
      8 C         144.3320  141.4209  162.9599 C.2     1  UNL1        0.2332
      9 O         145.4745  140.6956  163.6070 O.2     1  UNL1       -0.2743
     10 H         142.3854  142.2896  163.3498 H       1  UNL1        0.1563
     11 C         144.3863  141.7534  161.4982 C.3     1  UNL1        0.1311
     12 C         143.6415  140.9076  160.5084 C.ar    1  UNL1        0.0708
     13 C         142.4320  140.1341  160.9430 C.ar    1  UNL1        0.0521
     14 C         141.6872  139.2883  159.9532 C.ar    1  UNL1        0.1407
     15 C         142.1518  139.2159  158.5287 C.ar    1  UNL1        0.0516
     16 C         143.3613  139.9894  158.0942 C.ar    1  UNL1        0.0620
     17 C         143.8259  139.9171  156.6698 C.3     1  UNL1        0.0522
     18 N         144.1061  140.8353  159.0841 N.ar    1  UNL1       -0.2533
     19 O         140.4777  138.5147  160.3877 O.3     1  UNL1       -0.4787
     20 C         140.3902  137.9837  161.7878 C.3     1  UNL1        0.1768
     21 C         139.2729  137.7092  162.7502 C.3     1  UNL1        0.1103
     22 C         140.2665  137.2327  163.7679 C.3     1  UNL1        0.2709
     23 F         141.2600  136.7563  164.7857 F       1  UNL1       -0.2041
     24 F         139.1490  136.9582  164.7302 F       1  UNL1       -0.2041
     25 C         141.3838  137.5073  162.8055 C.3     1  UNL1        0.1103
     26 C         142.9181  140.4833  169.6212 C.3     1  UNL1        0.0505
     27 C         141.9346  139.4682  170.1233 C.3     1  UNL1        0.0437
     28 C         140.5199  139.8740  170.4132 C.3     1  UNL1        0.1856
     29 F         139.7980  139.2886  171.5906 F       1  UNL1       -0.2351
     30 C         139.8270  140.8651  169.5257 C.3     1  UNL1        0.1643
     31 C         138.8954  140.3963  165.7870 C.ar    1  UNL1        0.1762
     32 C         139.5680  141.1690  166.8827 C.ar    1  UNL1        0.1223
     33 N         139.3317  140.4435  168.1741 N.ar    1  UNL1       -0.2272
     34 N         138.5130  139.2223  167.8766 N.ar    1  UNL1       -0.0636
     35 N         138.2433  139.1931  166.4014 N.ar    1  UNL1       -0.1241
     36 C         137.5558  141.2197  162.1432 C.3     1  UNL1        0.1110
     37 N         137.5734  140.8536  163.5977 N.am    1  UNL1       -0.2978
     38 C         138.8779  140.7624  164.3325 C.2     1  UNL1        0.2670
     39 O         140.1648  141.0373  163.6128 O.2     1  UNL1       -0.2684
     40 H         136.7286  140.6732  164.0701 H       1  UNL1        0.1498
@<TRIPOS>BOND
     1    36    37    1
     2    37    38   am
     3    38    39    2
     4    38    31    1
     5    31    32   ar
     6    32    33   ar
     7    33    30    1
     8    30    28    1
     9    28    29    1
    10    28    27    1
    11    27    26    1
    12    26     1    1
    13     1     2   ar
    14     2     3   ar
    15     3     4   ar
    16     4     7    1
    17     7     8   am
    18     8     9    2
    19     8    11    1
    20    11    12    1
    21    12    13   ar
    22    13    14   ar
    23    14    19    1
    24    19    20    1
    25    20    21    1
    26    21    22    1
    27    22    23    1
    28    22    24    1
    29    22    25    1
    30    14    15   ar
    31    15    16   ar
    32    16    17    1
    33    16    18   ar
    34     4     5   ar
    35     5     6   ar
    36    33    34   ar
    37    34    35   ar
    38    35    31   ar
    39     6     1   ar
    40    18    12   ar
    41    25    20    1
    42    37    40    1
    43     7    10    1
@<TRIPOS>MOLECULE
*****
 40 43 0 0 0
SMALL
GASTEIGER

@<TRIPOS>ATOM
      1 C         139.2127  142.4910  158.4973 C.ar    1  UNL1        0.0807
      2 C         140.2675  141.4754  158.8222 C.ar    1  UNL1        0.0194
      3 C         140.3261  140.8670  160.1920 C.ar    1  UNL1        0.0375
      4 C         139.3299  141.2742  161.2369 C.ar    1  UNL1        0.1559
      5 N         138.2751  142.2899  160.9119 N.ar    1  UNL1       -0.1331
      6 N         138.2165  142.8983  159.5421 N.ar    1  UNL1       -0.1512
      7 N         139.3886  140.6657  162.6067 N.am    1  UNL1       -0.2676
      8 C         138.5356  139.4768  162.9364 C.2     1  UNL1        0.2332
      9 O         137.6239  138.8962  161.8963 O.2     1  UNL1       -0.2743
     10 H         139.9869  141.0468  163.2894 H       1  UNL1        0.1563
     11 C         138.5943  138.8683  164.3062 C.3     1  UNL1        0.1311
     12 C         139.7990  139.0864  165.1728 C.ar    1  UNL1        0.0708
     13 C         139.6275  139.4659  166.6139 C.ar    1  UNL1        0.0521
     14 C         140.8323  139.6840  167.4804 C.ar    1  UNL1        0.1407
     15 C         142.2086  139.5226  166.9060 C.ar    1  UNL1        0.0516
     16 C         142.3800  139.1432  165.4649 C.ar    1  UNL1        0.0620
     17 C         143.7562  138.9818  164.8904 C.3     1  UNL1        0.0522
     18 N         141.1752  138.9251  164.5983 N.ar    1  UNL1       -0.2533
     19 O         140.6608  140.0635  168.9215 O.3     1  UNL1       -0.4787
     20 C         140.9981  141.4524  169.3766 C.3     1  UNL1        0.1768
     21 C         140.2669  142.7614  169.4193 C.3     1  UNL1        0.1103
     22 C         141.4751  143.4166  170.0202 C.3     1  UNL1        0.2709
     23 F         142.6831  144.0719  170.6209 F       1  UNL1       -0.2041
     24 F         140.7438  144.7256  170.0629 F       1  UNL1       -0.2041
     25 C         142.2063  142.1076  169.9774 C.3     1  UNL1        0.1103
     26 C         139.1540  143.0995  157.1275 C.3     1  UNL1        0.0505
     27 C         139.7803  144.4387  156.8742 C.3     1  UNL1        0.0437
     28 C         141.2202  144.6717  157.2246 C.3     1  UNL1        0.1856
     29 F         142.3020  143.9782  156.4508 F       1  UNL1       -0.2351
     30 C         141.5781  145.5981  158.3487 C.3     1  UNL1        0.1643
     31 C         140.6862  144.5809  161.9867 C.ar    1  UNL1        0.1762
     32 C         141.5883  144.5103  160.7903 C.ar    1  UNL1        0.1223
     33 N         141.0014  145.3766  159.7155 N.ar    1  UNL1       -0.2272
     34 N         139.7367  145.9826  160.2476 N.ar    1  UNL1       -0.0636
     35 N         139.5418  145.4908  161.6513 N.ar    1  UNL1       -0.1241
     36 C         142.4865  142.9393  165.1194 C.3     1  UNL1        0.1110
     37 N         142.2804  143.6533  163.8165 N.am    1  UNL1       -0.2978
     38 C         140.8923  143.8669  163.2897 C.2     1  UNL1        0.2670
     39 O         139.7103  143.3665  164.0658 O.2     1  UNL1       -0.2684
     40 H         143.0562  143.9817  163.3071 H       1  UNL1        0.1498
@<TRIPOS>BOND
     1    36    37    1
     2    37    38   am
     3    38    39    2
     4    38    31    1
     5    31    32   ar
     6    32    33   ar
     7    33    30    1
     8    30    28    1
     9    28    29    1
    10    28    27    1
    11    27    26    1
    12    26     1    1
    13     1     2   ar
    14     2     3   ar
    15     3     4   ar
    16     4     7    1
    17     7     8   am
    18     8     9    2
    19     8    11    1
    20    11    12    1
    21    12    13   ar
    22    13    14   ar
    23    14    19    1
    24    19    20    1
    25    20    21    1
    26    21    22    1
    27    22    23    1
    28    22    24    1
    29    22    25    1
    30    14    15   ar
    31    15    16   ar
    32    16    17    1
    33    16    18   ar
    34     4     5   ar
    35     5     6   ar
    36    33    34   ar
    37    34    35   ar
    38    35    31   ar
    39     6     1   ar
    40    18    12   ar
    41    25    20    1
    42    37    40    1
    43     7    10    1
@<TRIPOS>MOLECULE
*****
 40 43 0 0 0
SMALL
GASTEIGER

@<TRIPOS>ATOM
      1 C         143.8939  140.8106  159.9660 C.ar    1  UNL1        0.0807
      2 C         144.3651  142.1003  160.5699 C.ar    1  UNL1        0.0194
      3 C         144.3945  142.2638  162.0606 C.ar    1  UNL1        0.0375
      4 C         143.9529  141.1376  162.9475 C.ar    1  UNL1        0.1559
      5 N         143.4817  139.8479  162.3436 N.ar    1  UNL1       -0.1331
      6 N         143.4523  139.6844  160.8529 N.ar    1  UNL1       -0.1512
      7 N         143.9823  141.3011  164.4383 N.am    1  UNL1       -0.2676
      8 C         142.9402  142.1357  165.1220 C.2     1  UNL1        0.2332
      9 O         141.8686  142.8067  164.3150 O.2     1  UNL1       -0.2743
     10 H         144.6857  140.8607  164.9680 H       1  UNL1        0.1563
     11 C         142.9697  142.2992  166.6128 C.3     1  UNL1        0.1311
     12 C         141.8383  141.7761  167.4472 C.ar    1  UNL1        0.0708
     13 C         140.9294  140.7163  166.8987 C.ar    1  UNL1        0.0521
     14 C         139.7980  140.1933  167.7331 C.ar    1  UNL1        0.1407
     15 C         139.5754  140.7300  169.1161 C.ar    1  UNL1        0.0516
     16 C         140.4843  141.7897  169.6646 C.ar    1  UNL1        0.0620
     17 C         140.2617  142.3264  171.0474 C.3     1  UNL1        0.0522
     18 N         141.6157  142.3128  168.8301 N.ar    1  UNL1       -0.2533
     19 O         138.8891  139.1335  167.1846 O.3     1  UNL1       -0.4787
     20 C         138.8373  138.8812  165.7069 C.3     1  UNL1        0.1768
     21 C         138.3156  139.6352  164.5198 C.3     1  UNL1        0.1103
     22 C         138.7640  138.5243  163.6171 C.3     1  UNL1        0.2709
     23 F         139.2124  137.4135  162.7144 F       1  UNL1       -0.2041
     24 F         138.2422  139.2784  162.4300 F       1  UNL1       -0.2041
     25 C         139.2857  137.7703  164.8042 C.3     1  UNL1        0.1103
     26 C         143.8645  140.6471  158.4752 C.3     1  UNL1        0.0505
     27 C         142.6499  141.0622  157.6990 C.3     1  UNL1        0.0437
     28 C         141.4403  141.5801  158.4193 C.3     1  UNL1        0.1856
     29 F         140.5114  140.6247  159.1081 F       1  UNL1       -0.2351
     30 C         141.1597  143.0532  158.4508 C.3     1  UNL1        0.1643
     31 C         139.9622  144.4676  161.8612 C.ar    1  UNL1        0.1762
     32 C         139.7573  143.5899  160.6622 C.ar    1  UNL1        0.1223
     33 N         140.9473  143.7483  159.7629 N.ar    1  UNL1       -0.2272
     34 N         141.8877  144.7240  160.4061 N.ar    1  UNL1       -0.0636
     35 N         141.2789  145.1685  161.7029 N.ar    1  UNL1       -0.1241
     36 C         138.6041  145.0338  165.5470 C.3     1  UNL1        0.1110
     37 N         139.5498  144.8834  164.3924 N.am    1  UNL1       -0.2978
     38 C         139.0165  144.6179  163.0158 C.2     1  UNL1        0.2670
     39 O         137.5375  144.5028  162.7938 O.2     1  UNL1       -0.2684
     40 H         140.5205  144.9590  164.5382 H       1  UNL1        0.1498
@<TRIPOS>BOND
     1    36    37    1
     2    37    38   am
     3    38    39    2
     4    38    31    1
     5    31    32   ar
     6    32    33   ar
     7    33    30    1
     8    30    28    1
     9    28    29    1
    10    28    27    1
    11    27    26    1
    12    26     1    1
    13     1     2   ar
    14     2     3   ar
    15     3     4   ar
    16     4     7    1
    17     7     8   am
    18     8     9    2
    19     8    11    1
    20    11    12    1
    21    12    13   ar
    22    13    14   ar
    23    14    19    1
    24    19    20    1
    25    20    21    1
    26    21    22    1
    27    22    23    1
    28    22    24    1
    29    22    25    1
    30    14    15   ar
    31    15    16   ar
    32    16    17    1
    33    16    18   ar
    34     4     5   ar
    35     5     6   ar
    36    33    34   ar
    37    34    35   ar
    38    35    31   ar
    39     6     1   ar
    40    18    12   ar
    41    25    20    1
    42    37    40    1
    43     7    10    1
@<TRIPOS>MOLECULE
*****
 40 43 0 0 0
SMALL
GASTEIGER

@<TRIPOS>ATOM
      1 C         139.6866  141.8202  158.9235 C.ar    1  UNL1        0.0807
      2 C         140.8142  141.1470  159.6483 C.ar    1  UNL1        0.0194
      3 C         140.7092  140.8868  161.1218 C.ar    1  UNL1        0.0375
      4 C         139.4767  141.2997  161.8705 C.ar    1  UNL1        0.1559
      5 N         138.3492  141.9729  161.1457 N.ar    1  UNL1       -0.1331
      6 N         138.4541  142.2331  159.6722 N.ar    1  UNL1       -0.1512
      7 N         139.3718  141.0394  163.3441 N.am    1  UNL1       -0.2676
      8 C         138.6780  139.8056  163.8402 C.2     1  UNL1        0.2332
      9 O         138.0891  138.8320  162.8629 O.2     1  UNL1       -0.2743
     10 H         139.7584  141.6784  163.9855 H       1  UNL1        0.1563
     11 C         138.5731  139.5453  165.3138 C.3     1  UNL1        0.1311
     12 C         139.8059  139.5629  166.1681 C.ar    1  UNL1        0.0708
     13 C         141.1374  139.2164  165.5707 C.ar    1  UNL1        0.0521
     14 C         142.3702  139.2339  166.4250 C.ar    1  UNL1        0.1407
     15 C         142.2715  139.5979  167.8768 C.ar    1  UNL1        0.0516
     16 C         140.9399  139.9444  168.4743 C.ar    1  UNL1        0.0620
     17 C         140.8412  140.3084  169.9261 C.3     1  UNL1        0.0522
     18 N         139.7071  139.9269  167.6199 N.ar    1  UNL1       -0.2533
     19 O         143.7017  138.8874  165.8275 O.3     1  UNL1       -0.4787
     20 C         144.1442  139.5406  164.5518 C.3     1  UNL1        0.1768
     21 C         145.0759  140.6630  164.2025 C.3     1  UNL1        0.1103
     22 C         144.7699  140.4643  162.7476 C.3     1  UNL1        0.2709
     23 F         144.4639  140.2658  161.2926 F       1  UNL1       -0.2041
     24 F         145.7017  141.5868  162.3984 F       1  UNL1       -0.2041
     25 C         143.8381  139.3419  163.0968 C.3     1  UNL1        0.1103
     26 C         139.7915  142.0805  157.4499 C.3     1  UNL1        0.0505
     27 C         139.3524  143.4002  156.8883 C.3     1  UNL1        0.0437
     28 C         140.2713  144.5843  156.9491 C.3     1  UNL1        0.1856
     29 F         141.1264  144.9315  155.7666 F       1  UNL1       -0.2351
     30 C         140.3351  145.4211  158.1923 C.3     1  UNL1        0.1643
     31 C         141.7014  144.3601  161.6669 C.ar    1  UNL1        0.1762
     32 C         140.6156  144.9337  160.8055 C.ar    1  UNL1        0.1223
     33 N         141.1010  144.9333  159.3862 N.ar    1  UNL1       -0.2272
     34 N         142.4868  144.3596  159.3704 N.ar    1  UNL1       -0.0636
     35 N         142.8579  144.0053  160.7799 N.ar    1  UNL1       -0.1241
     36 C         142.2556  142.8088  165.2775 C.3     1  UNL1        0.1110
     37 N         142.3157  142.9949  163.7903 N.am    1  UNL1       -0.2978
     38 C         141.6413  144.1740  163.1541 C.2     1  UNL1        0.2670
     39 O         140.9068  145.1671  164.0051 O.2     1  UNL1       -0.2684
     40 H         142.7978  142.3431  163.2317 H       1  UNL1        0.1498
@<TRIPOS>BOND
     1    36    37    1
     2    37    38   am
     3    38    39    2
     4    38    31    1
     5    31    32   ar
     6    32    33   ar
     7    33    30    1
     8    30    28    1
     9    28    29    1
    10    28    27    1
    11    27    26    1
    12    26     1    1
    13     1     2   ar
    14     2     3   ar
    15     3     4   ar
    16     4     7    1
    17     7     8   am
    18     8     9    2
    19     8    11    1
    20    11    12    1
    21    12    13   ar
    22    13    14   ar
    23    14    19    1
    24    19    20    1
    25    20    21    1
    26    21    22    1
    27    22    23    1
    28    22    24    1
    29    22    25    1
    30    14    15   ar
    31    15    16   ar
    32    16    17    1
    33    16    18   ar
    34     4     5   ar
    35     5     6   ar
    36    33    34   ar
    37    34    35   ar
    38    35    31   ar
    39     6     1   ar
    40    18    12   ar
    41    25    20    1
    42    37    40    1
    43     7    10    1
@<TRIPOS>MOLECULE
*****
 40 43 0 0 0
SMALL
GASTEIGER

@<TRIPOS>ATOM
      1 C         139.2590  144.4601  156.6416 C.ar    1  UNL1        0.0807
      2 C         140.0832  145.6895  156.8850 C.ar    1  UNL1        0.0194
      3 C         140.8208  145.8535  158.1807 C.ar    1  UNL1        0.0375
      4 C         140.7343  144.7881  159.2331 C.ar    1  UNL1        0.1559
      5 N         139.9101  143.5587  158.9897 N.ar    1  UNL1       -0.1331
      6 N         139.1725  143.3947  157.6940 N.ar    1  UNL1       -0.1512
      7 N         141.4720  144.9521  160.5289 N.am    1  UNL1       -0.2676
      8 C         140.7150  145.2389  161.7917 C.2     1  UNL1        0.2332
      9 O         139.2204  145.3616  161.7588 O.2     1  UNL1       -0.2743
     10 H         142.4529  144.8715  160.5504 H       1  UNL1        0.1563
     11 C         141.4527  145.4029  163.0875 C.3     1  UNL1        0.1311
     12 C         142.1547  144.2298  163.7046 C.ar    1  UNL1        0.0708
     13 C         141.5940  143.5835  164.9367 C.ar    1  UNL1        0.0521
     14 C         142.2960  142.4103  165.5538 C.ar    1  UNL1        0.1407
     15 C         143.5586  141.8833  164.9389 C.ar    1  UNL1        0.0516
     16 C         144.1193  142.5296  163.7068 C.ar    1  UNL1        0.0620
     17 C         145.3819  142.0027  163.0919 C.3     1  UNL1        0.0522
     18 N         143.4173  143.7029  163.0897 N.ar    1  UNL1       -0.2533
     19 O         141.7353  141.7640  166.7859 O.3     1  UNL1       -0.4787
     20 C         140.5331  140.8727  166.6844 C.3     1  UNL1        0.1768
     21 C         139.7297  140.3000  165.5546 C.3     1  UNL1        0.1103
     22 C         138.8330  139.6122  166.5409 C.3     1  UNL1        0.2709
     23 F         137.9363  138.9243  167.5271 F       1  UNL1       -0.2041
     24 F         138.0296  139.0395  165.4110 F       1  UNL1       -0.2041
     25 C         139.6365  140.1849  167.6707 C.3     1  UNL1        0.1103
     26 C         138.5213  144.2960  155.3458 C.3     1  UNL1        0.0505
     27 C         137.0979  143.8231  155.3479 C.3     1  UNL1        0.0437
     28 C         136.7927  142.3620  155.1991 C.3     1  UNL1        0.1856
     29 F         137.8584  141.3419  155.4704 F       1  UNL1       -0.2351
     30 C         135.4219  141.9211  154.7790 C.3     1  UNL1        0.1643
     31 C         132.6809  140.0678  156.8080 C.ar    1  UNL1        0.1762
     32 C         133.0890  141.0335  155.7353 C.ar    1  UNL1        0.1223
     33 N         134.5878  141.0834  155.7022 N.ar    1  UNL1       -0.2272
     34 N         135.1060  140.1486  156.7546 N.ar    1  UNL1       -0.0636
     35 N         133.9275  139.5209  157.4380 N.ar    1  UNL1       -0.1241
     36 C         129.6102  138.3982  158.6878 C.3     1  UNL1        0.1110
     37 N         131.0177  138.7545  158.3111 N.am    1  UNL1       -0.2978
     38 C         131.2733  139.7115  157.1847 C.2     1  UNL1        0.2670
     39 O         130.1214  140.3122  156.4350 O.2     1  UNL1       -0.2684
     40 H         131.7738  138.3602  158.8032 H       1  UNL1        0.1498
@<TRIPOS>BOND
     1    36    37    1
     2    37    38   am
     3    38    39    2
     4    38    31    1
     5    31    32   ar
     6    32    33   ar
     7    33    30    1
     8    30    28    1
     9    28    29    1
    10    28    27    1
    11    27    26    1
    12    26     1    1
    13     1     2   ar
    14     2     3   ar
    15     3     4   ar
    16     4     7    1
    17     7     8   am
    18     8     9    2
    19     8    11    1
    20    11    12    1
    21    12    13   ar
    22    13    14   ar
    23    14    19    1
    24    19    20    1
    25    20    21    1
    26    21    22    1
    27    22    23    1
    28    22    24    1
    29    22    25    1
    30    14    15   ar
    31    15    16   ar
    32    16    17    1
    33    16    18   ar
    34     4     5   ar
    35     5     6   ar
    36    33    34   ar
    37    34    35   ar
    38    35    31   ar
    39     6     1   ar
    40    18    12   ar
    41    25    20    1
    42    37    40    1
    43     7    10    1
@<TRIPOS>MOLECULE
*****
 40 43 0 0 0
SMALL
GASTEIGER

@<TRIPOS>ATOM
      1 C         142.0409  139.6239  157.2014 C.ar    1  UNL1        0.0807
      2 C         142.8237  138.3967  157.5635 C.ar    1  UNL1        0.0194
      3 C         142.8624  137.9247  158.9867 C.ar    1  UNL1        0.0375
      4 C         142.1182  138.6799  160.0478 C.ar    1  UNL1        0.1559
      5 N         141.3354  139.9071  159.6857 N.ar    1  UNL1       -0.1331
      6 N         141.2968  140.3791  158.2625 N.ar    1  UNL1       -0.1512
      7 N         142.1569  138.2078  161.4711 N.am    1  UNL1       -0.2676
      8 C         140.9043  137.7134  162.1316 C.2     1  UNL1        0.2332
      9 O         139.6129  137.6910  161.3689 O.2     1  UNL1       -0.2743
     10 H         143.0045  138.2225  161.9718 H       1  UNL1        0.1563
     11 C         140.9430  137.2413  163.5550 C.3     1  UNL1        0.1311
     12 C         140.3337  138.0790  164.6398 C.ar    1  UNL1        0.0708
     13 C         140.9573  139.3909  165.0140 C.ar    1  UNL1        0.0521
     14 C         140.3480  140.2287  166.0988 C.ar    1  UNL1        0.1407
     15 C         139.1150  139.7545  166.8096 C.ar    1  UNL1        0.0516
     16 C         138.4914  138.4426  166.4354 C.ar    1  UNL1        0.0620
     17 C         137.2585  137.9684  167.1460 C.3     1  UNL1        0.0522
     18 N         139.1008  137.6048  165.3505 N.ar    1  UNL1       -0.2533
     19 O         140.9715  141.5406  166.4730 O.3     1  UNL1       -0.4787
     20 C         140.7346  142.7533  165.6226 C.3     1  UNL1        0.1768
     21 C         141.5758  143.5790  164.6949 C.3     1  UNL1        0.1103
     22 C         140.3996  144.4683  164.4200 C.3     1  UNL1        0.2709
     23 F         139.2235  145.3577  164.1450 F       1  UNL1       -0.2041
     24 F         141.2408  145.2940  163.4923 F       1  UNL1       -0.2041
     25 C         139.5584  143.6426  165.3477 C.3     1  UNL1        0.1103
     26 C         142.0022  140.0960  155.7780 C.3     1  UNL1        0.0505
     27 C         143.2429  140.6405  155.1345 C.3     1  UNL1        0.0437
     28 C         144.2880  141.3156  155.9723 C.3     1  UNL1        0.1856
     29 F         145.5936  140.6276  156.2409 F       1  UNL1       -0.2351
     30 C         144.0275  142.6787  156.5416 C.3     1  UNL1        0.1643
     31 C         143.8182  142.4979  160.4132 C.ar    1  UNL1        0.1762
     32 C         144.3278  141.9751  159.1028 C.ar    1  UNL1        0.1223
     33 N         143.7740  142.8418  158.0110 N.ar    1  UNL1       -0.2272
     34 N         142.9220  143.9003  158.6464 N.ar    1  UNL1       -0.0636
     35 N         142.9493  143.6878  160.1311 N.ar    1  UNL1       -0.1241
     36 C         145.7823  141.5720  163.7350 C.3     1  UNL1        0.1110
     37 N         145.4768  142.1393  162.3805 N.am    1  UNL1       -0.2978
     38 C         144.1237  141.9306  161.7677 C.2     1  UNL1        0.2670
     39 O         143.0761  141.1546  162.5095 O.2     1  UNL1       -0.2684
     40 H         146.1644  142.6487  161.8936 H       1  UNL1        0.1498
@<TRIPOS>BOND
     1    36    37    1
     2    37    38   am
     3    38    39    2
     4    38    31    1
     5    31    32   ar
     6    32    33   ar
     7    33    30    1
     8    30    28    1
     9    28    29    1
    10    28    27    1
    11    27    26    1
    12    26     1    1
    13     1     2   ar
    14     2     3   ar
    15     3     4   ar
    16     4     7    1
    17     7     8   am
    18     8     9    2
    19     8    11    1
    20    11    12    1
    21    12    13   ar
    22    13    14   ar
    23    14    19    1
    24    19    20    1
    25    20    21    1
    26    21    22    1
    27    22    23    1
    28    22    24    1
    29    22    25    1
    30    14    15   ar
    31    15    16   ar
    32    16    17    1
    33    16    18   ar
    34     4     5   ar
    35     5     6   ar
    36    33    34   ar
    37    34    35   ar
    38    35    31   ar
    39     6     1   ar
    40    18    12   ar
    41    25    20    1
    42    37    40    1
    43     7    10    1
@<TRIPOS>MOLECULE
*****
 40 43 0 0 0
SMALL
GASTEIGER

@<TRIPOS>ATOM
      1 C         143.7802  142.5407  159.0417 C.ar    1  UNL1        0.0807
      2 C         142.3864  142.4775  159.5923 C.ar    1  UNL1        0.0194
      3 C         142.1567  142.6080  161.0689 C.ar    1  UNL1        0.0375
      4 C         143.3208  142.8017  161.9947 C.ar    1  UNL1        0.1559
      5 N         144.7146  142.8650  161.4441 N.ar    1  UNL1       -0.1331
      6 N         144.9443  142.7345  159.9676 N.ar    1  UNL1       -0.1512
      7 N         143.0911  142.9323  163.4713 N.am    1  UNL1       -0.2676
      8 C         143.6188  141.8861  164.4078 C.2     1  UNL1        0.2332
      9 O         144.3763  140.7094  163.8678 O.2     1  UNL1       -0.2743
     10 H         142.5939  143.7045  163.8258 H       1  UNL1        0.1563
     11 C         143.3891  142.0166  165.8844 C.3     1  UNL1        0.1311
     12 C         142.1781  141.3934  166.5130 C.ar    1  UNL1        0.0708
     13 C         140.8958  141.3006  165.7403 C.ar    1  UNL1        0.0521
     14 C         139.6848  140.6774  166.3689 C.ar    1  UNL1        0.1407
     15 C         139.7561  140.1471  167.7702 C.ar    1  UNL1        0.0516
     16 C         141.0384  140.2399  168.5429 C.ar    1  UNL1        0.0620
     17 C         141.1097  139.7096  169.9442 C.3     1  UNL1        0.0522
     18 N         142.2494  140.8631  167.9143 N.ar    1  UNL1       -0.2533
     19 O         138.4025  140.5846  165.5961 O.3     1  UNL1       -0.4787
     20 C         138.1050  141.5801  164.5143 C.3     1  UNL1        0.1768
     21 C         137.9891  141.5196  163.0200 C.3     1  UNL1        0.1103
     22 C         137.6843  142.9879  162.9842 C.3     1  UNL1        0.2709
     23 F         137.3796  144.4561  162.9484 F       1  UNL1       -0.2041
     24 F         137.5684  142.9274  161.4899 F       1  UNL1       -0.2041
     25 C         137.8003  143.0484  164.4785 C.3     1  UNL1        0.1103
     26 C         144.0099  142.4102  157.5651 C.3     1  UNL1        0.0505
     27 C         143.1562  141.4826  156.7524 C.3     1  UNL1        0.0437
     28 C         143.5217  140.0321  156.6398 C.3     1  UNL1        0.1856
     29 F         144.6498  139.6101  155.7458 F       1  UNL1       -0.2351
     30 C         142.7591  139.0037  157.4213 C.3     1  UNL1        0.1643
     31 C         142.6204  138.3881  161.2511 C.ar    1  UNL1        0.1762
     32 C         141.9862  138.3401  159.8926 C.ar    1  UNL1        0.1223
     33 N         142.9767  138.8717  158.8995 N.ar    1  UNL1       -0.2272
     34 N         144.2232  139.2482  159.6442 N.ar    1  UNL1       -0.0636
     35 N         144.0030  138.9493  161.0976 N.ar    1  UNL1       -0.1241
     36 C         141.9592  137.9094  165.1349 C.3     1  UNL1        0.1110
     37 N         142.5957  138.3460  163.8487 N.am    1  UNL1       -0.2978
     38 C         141.9839  137.9514  162.5372 C.2     1  UNL1        0.2670
     39 O         140.7355  137.1203  162.5120 O.2     1  UNL1       -0.2684
     40 H         143.4151  138.8916  163.8653 H       1  UNL1        0.1498
@<TRIPOS>BOND
     1    36    37    1
     2    37    38   am
     3    38    39    2
     4    38    31    1
     5    31    32   ar
     6    32    33   ar
     7    33    30    1
     8    30    28    1
     9    28    29    1
    10    28    27    1
    11    27    26    1
    12    26     1    1
    13     1     2   ar
    14     2     3   ar
    15     3     4   ar
    16     4     7    1
    17     7     8   am
    18     8     9    2
    19     8    11    1
    20    11    12    1
    21    12    13   ar
    22    13    14   ar
    23    14    19    1
    24    19    20    1
    25    20    21    1
    26    21    22    1
    27    22    23    1
    28    22    24    1
    29    22    25    1
    30    14    15   ar
    31    15    16   ar
    32    16    17    1
    33    16    18   ar
    34     4     5   ar
    35     5     6   ar
    36    33    34   ar
    37    34    35   ar
    38    35    31   ar
    39     6     1   ar
    40    18    12   ar
    41    25    20    1
    42    37    40    1
    43     7    10    1
@<TRIPOS>MOLECULE
*****
 40 43 0 0 0
SMALL
GASTEIGER

@<TRIPOS>ATOM
      1 C         139.1489  139.9093  166.9332 C.ar    1  UNL1        0.0807
      2 C         138.6922  138.6387  166.2797 C.ar    1  UNL1        0.0194
      3 C         138.6884  138.5239  164.7842 C.ar    1  UNL1        0.0375
      4 C         139.1412  139.6796  163.9420 C.ar    1  UNL1        0.1559
      5 N         139.5979  140.9502  164.5955 N.ar    1  UNL1       -0.1331
      6 N         139.6018  141.0650  166.0910 N.ar    1  UNL1       -0.1512
      7 N         139.1373  139.5647  162.4464 N.am    1  UNL1       -0.2676
      8 C         138.1023  140.2927  161.6410 C.2     1  UNL1        0.2332
      9 O         137.0712  141.1356  162.3311 O.2     1  UNL1       -0.2743
     10 H         139.8141  139.0115  161.9934 H       1  UNL1        0.1563
     11 C         138.0985  140.1778  160.1453 C.3     1  UNL1        0.1311
     12 C         138.5973  141.3153  159.3044 C.ar    1  UNL1        0.0708
     13 C         139.0389  142.5923  159.9559 C.ar    1  UNL1        0.0521
     14 C         139.5377  143.7298  159.1150 C.ar    1  UNL1        0.1407
     15 C         139.5951  143.5904  157.6226 C.ar    1  UNL1        0.0516
     16 C         139.1536  142.3135  156.9711 C.ar    1  UNL1        0.0620
     17 C         139.2109  142.1740  155.4787 C.3     1  UNL1        0.0522
     18 N         138.6547  141.1759  157.8121 N.ar    1  UNL1       -0.2533
     19 O         139.9792  145.0068  159.7665 O.3     1  UNL1       -0.4787
     20 C         140.7622  144.9647  161.0452 C.3     1  UNL1        0.1768
     21 C         140.6115  145.5859  162.4022 C.3     1  UNL1        0.1103
     22 C         141.8695  144.9051  162.8536 C.3     1  UNL1        0.2709
     23 F         143.1275  144.2244  163.3052 F       1  UNL1       -0.2041
     24 F         141.7187  145.5264  164.2106 F       1  UNL1       -0.2041
     25 C         142.0203  144.2839  161.4967 C.3     1  UNL1        0.1103
     26 C         139.1528  140.0242  168.4288 C.3     1  UNL1        0.0505
     27 C         140.4516  140.0068  169.1790 C.3     1  UNL1        0.0437
     28 C         141.5052  141.0312  168.8782 C.3     1  UNL1        0.1856
     29 F         141.2694  142.4725  169.2205 F       1  UNL1       -0.2351
     30 C         142.7947  140.6144  168.2351 C.3     1  UNL1        0.1643
     31 C         142.9213  139.6177  164.4860 C.ar    1  UNL1        0.1762
     32 C         142.7606  139.2565  165.9329 C.ar    1  UNL1        0.1223
     33 N         142.8895  140.5133  166.7415 N.ar    1  UNL1       -0.2272
     34 N         143.1300  141.6513  165.7944 N.ar    1  UNL1       -0.0636
     35 N         143.1496  141.0978  164.4004 N.ar    1  UNL1       -0.1241
     36 C         143.8602  137.7660  161.1037 C.3     1  UNL1        0.1110
     37 N         143.9176  138.7177  162.2617 N.am    1  UNL1       -0.2978
     38 C         142.8639  138.6661  163.3280 C.2     1  UNL1        0.2670
     39 O         141.7527  137.6627  163.2362 O.2     1  UNL1       -0.2684
     40 H         144.6470  139.3763  162.3219 H       1  UNL1        0.1498
@<TRIPOS>BOND
     1    36    37    1
     2    37    38   am
     3    38    39    2
     4    38    31    1
     5    31    32   ar
     6    32    33   ar
     7    33    30    1
     8    30    28    1
     9    28    29    1
    10    28    27    1
    11    27    26    1
    12    26     1    1
    13     1     2   ar
    14     2     3   ar
    15     3     4   ar
    16     4     7    1
    17     7     8   am
    18     8     9    2
    19     8    11    1
    20    11    12    1
    21    12    13   ar
    22    13    14   ar
    23    14    19    1
    24    19    20    1
    25    20    21    1
    26    21    22    1
    27    22    23    1
    28    22    24    1
    29    22    25    1
    30    14    15   ar
    31    15    16   ar
    32    16    17    1
    33    16    18   ar
    34     4     5   ar
    35     5     6   ar
    36    33    34   ar
    37    34    35   ar
    38    35    31   ar
    39     6     1   ar
    40    18    12   ar
    41    25    20    1
    42    37    40    1
    43     7    10    1
