@<TRIPOS>MOLECULE
*****
 35 39 0 0 0
SMALL
GASTEIGER

@<TRIPOS>ATOM
      1 N         142.5166  141.2985  167.0249 N.ar    1  UNL1       -0.2815
      2 C         142.6959  141.9434  168.3673 C.ar    1  UNL1        0.3316
      3 O         143.8501  142.8060  168.7841 O.2     1  UNL1       -0.2463
      4 N         141.5182  141.5741  169.2198 N.ar    1  UNL1       -0.2765
      5 C         141.2880  142.0026  170.6388 C.3     1  UNL1        0.1352
      6 C         140.6111  140.7011  168.4043 C.ar    1  UNL1        0.0989
      7 C         139.3031  140.0392  168.7217 C.ar    1  UNL1        0.1175
      8 N         138.6120  139.2070  167.6826 N.ar    1  UNL1       -0.2422
      9 C         139.2291  139.0367  166.3260 C.ar    1  UNL1        0.0850
     10 C         138.5380  138.2045  165.2868 C.ar    1  UNL1        0.0488
     11 C         139.1551  138.0341  163.9303 C.ar    1  UNL1        0.1416
     12 F         138.4640  137.2020  162.8911 F       1  UNL1       -0.2041
     13 C         140.4632  138.6961  163.6129 C.ar    1  UNL1        0.0291
     14 C         141.1542  139.5283  164.6521 C.ar    1  UNL1        0.0053
     15 C         140.5372  139.6986  166.0086 C.ar    1  UNL1        0.0352
     16 C         141.2282  140.5308  167.0478 C.ar    1  UNL1        0.0826
     17 C         141.0803  138.5258  162.2564 C.ar    1  UNL1        0.0214
     18 C         142.4126  137.8505  162.1179 C.ar    1  UNL1        0.0045
     19 C         143.0296  137.6802  160.7613 C.ar    1  UNL1        0.0341
     20 C         142.3144  138.1851  159.5433 C.ar    1  UNL1        0.1285
     21 N         140.9822  138.8604  159.6818 N.ar    1  UNL1       -0.2294
     22 C         140.3651  139.0307  161.0384 C.ar    1  UNL1        0.1003
     23 N         142.9315  138.0148  158.1867 N.pl3   1  UNL1       -0.3169
     24 H         143.7823  138.4618  157.9733 H       1  UNL1        0.1482
     25 C         142.2521  137.1635  157.1552 C.3     1  UNL1        0.1057
     26 C         143.0462  136.1667  156.3642 C.3     1  UNL1        0.0936
     27 N         142.8711  134.6985  156.6164 N.3     1  UNL1       -0.2689
     28 C         143.5413  134.0545  157.7937 C.3     1  UNL1        0.0897
     29 C         142.0256  133.8742  155.6912 C.3     1  UNL1        0.0897
     30 C         144.7945  141.5509  164.2211 C.3     1  UNL1        0.1191
     31 C         144.0395  142.5337  165.0661 C.3     1  UNL1        0.0524
     32 C         143.4601  141.4031  165.8635 C.3     1  UNL1        0.0947
     33 C         144.2152  140.4202  165.0185 C.3     1  UNL1        0.0524
     34 C         145.2477  142.1707  161.7390 C.3     1  UNL1        0.1740
     35 O         145.7380  141.6555  163.0597 O.3     1  UNL1       -0.3534
@<TRIPOS>BOND
     1    34    35    1
     2    30    35    1
     3    30    31    1
     4    31    32    1
     5    32     1    1
     6     1     2   ar
     7     2     3    2
     8     2     4   ar
     9     4     5    1
    10     4     6   ar
    11     6     7   ar
    12     7     8   ar
    13     8     9   ar
    14     9    10   ar
    15    10    11   ar
    16    11    12    1
    17    11    13   ar
    18    13    17    1
    19    17    18   ar
    20    18    19   ar
    21    19    20   ar
    22    20    23    1
    23    23    25    1
    24    25    26    1
    25    26    27    1
    26    27    28    1
    27    27    29    1
    28    20    21   ar
    29    21    22   ar
    30    13    14   ar
    31    14    15   ar
    32    15    16   ar
    33    32    33    1
    34    33    30    1
    35    16     1   ar
    36    16     6   ar
    37    15     9   ar
    38    22    17   ar
    39    23    24    1
@<TRIPOS>MOLECULE
*****
 35 39 0 0 0
SMALL
GASTEIGER

@<TRIPOS>ATOM
      1 N         139.7745  139.7397  166.3412 N.ar    1  UNL1       -0.2815
      2 C         138.9669  139.5971  167.5972 C.ar    1  UNL1        0.3316
      3 O         137.7106  138.7921  167.7509 O.2     1  UNL1       -0.2463
      4 N         139.6362  140.4008  168.6723 N.ar    1  UNL1       -0.2765
      5 C         139.1667  140.5407  170.0901 C.3     1  UNL1        0.1352
      6 C         140.8574  141.0402  168.0809 C.ar    1  UNL1        0.0989
      7 C         141.9027  141.9416  168.6682 C.ar    1  UNL1        0.1175
      8 N         143.0334  142.4345  167.8147 N.ar    1  UNL1       -0.2422
      9 C         143.1189  142.0259  166.3739 C.ar    1  UNL1        0.0850
     10 C         144.2497  142.5188  165.5204 C.ar    1  UNL1        0.0488
     11 C         144.3352  142.1102  164.0797 C.ar    1  UNL1        0.1416
     12 F         145.4659  142.6031  163.2262 F       1  UNL1       -0.2041
     13 C         143.2899  141.2088  163.4924 C.ar    1  UNL1        0.0291
     14 C         142.1592  140.7159  164.3459 C.ar    1  UNL1        0.0053
     15 C         142.0737  141.1245  165.7867 C.ar    1  UNL1        0.0352
     16 C         140.9430  140.6316  166.6402 C.ar    1  UNL1        0.0826
     17 C         143.3754  140.8002  162.0517 C.ar    1  UNL1        0.0214
     18 C         142.7490  141.6561  160.9909 C.ar    1  UNL1        0.0045
     19 C         142.8345  141.2475  159.5502 C.ar    1  UNL1        0.0341
     20 C         143.5464  139.9830  159.1702 C.ar    1  UNL1        0.1285
     21 N         144.1728  139.1272  160.2309 N.ar    1  UNL1       -0.2294
     22 C         144.0873  139.5358  161.6717 C.ar    1  UNL1        0.1003
     23 N         143.6319  139.5744  157.7295 N.pl3   1  UNL1       -0.3169
     24 H         144.3749  139.8967  157.1697 H       1  UNL1        0.1482
     25 C         142.5854  138.6748  157.1416 C.3     1  UNL1        0.1057
     26 C         142.5476  137.2230  157.5169 C.3     1  UNL1        0.0936
     27 N         143.2954  136.2160  156.6943 N.3     1  UNL1       -0.2689
     28 C         143.1999  134.7564  157.0267 C.3     1  UNL1        0.0897
     29 C         144.1386  136.6685  155.5392 C.3     1  UNL1        0.0897
     30 C         139.0336  138.2011  163.1478 C.3     1  UNL1        0.1191
     31 C         139.8855  137.8382  164.3279 C.3     1  UNL1        0.0524
     32 C         139.4677  139.1024  165.0185 C.3     1  UNL1        0.0947
     33 C         138.6157  139.4655  163.8384 C.3     1  UNL1        0.0524
     34 C         139.2852  138.1502  160.5624 C.3     1  UNL1        0.1740
     35 O         138.7267  137.5638  161.8251 O.3     1  UNL1       -0.3534
@<TRIPOS>BOND
     1    34    35    1
     2    30    35    1
     3    30    31    1
     4    31    32    1
     5    32     1    1
     6     1     2   ar
     7     2     3    2
     8     2     4   ar
     9     4     5    1
    10     4     6   ar
    11     6     7   ar
    12     7     8   ar
    13     8     9   ar
    14     9    10   ar
    15    10    11   ar
    16    11    12    1
    17    11    13   ar
    18    13    17    1
    19    17    18   ar
    20    18    19   ar
    21    19    20   ar
    22    20    23    1
    23    23    25    1
    24    25    26    1
    25    26    27    1
    26    27    28    1
    27    27    29    1
    28    20    21   ar
    29    21    22   ar
    30    13    14   ar
    31    14    15   ar
    32    15    16   ar
    33    32    33    1
    34    33    30    1
    35    16     1   ar
    36    16     6   ar
    37    15     9   ar
    38    22    17   ar
    39    23    24    1
@<TRIPOS>MOLECULE
*****
 35 39 0 0 0
SMALL
GASTEIGER

@<TRIPOS>ATOM
      1 N         142.7889  142.8217  160.3843 N.ar    1  UNL1       -0.2815
      2 C         143.1380  143.1098  158.9542 C.ar    1  UNL1        0.3316
      3 O         144.1676  142.3889  158.1355 O.2     1  UNL1       -0.2463
      4 N         142.2769  144.2455  158.4866 N.ar    1  UNL1       -0.2765
      5 C         142.2940  144.8596  157.1182 C.3     1  UNL1        0.1352
      6 C         141.3955  144.6593  159.6277 C.ar    1  UNL1        0.0989
      7 C         140.3457  145.7236  159.7502 C.ar    1  UNL1        0.1175
      8 N         139.6123  145.9080  161.0456 N.ar    1  UNL1       -0.2422
      9 C         139.9288  145.0280  162.2185 C.ar    1  UNL1        0.0850
     10 C         139.1953  145.2125  163.5139 C.ar    1  UNL1        0.0488
     11 C         139.5118  144.3325  164.6868 C.ar    1  UNL1        0.1416
     12 F         138.7784  144.5169  165.9822 F       1  UNL1       -0.2041
     13 C         140.5617  143.2682  164.5642 C.ar    1  UNL1        0.0291
     14 C         141.2950  143.0838  163.2688 C.ar    1  UNL1        0.0053
     15 C         140.9786  143.9637  162.0959 C.ar    1  UNL1        0.0352
     16 C         141.7119  143.7793  160.8005 C.ar    1  UNL1        0.0826
     17 C         140.8781  142.3882  165.7370 C.ar    1  UNL1        0.0214
     18 C         142.2737  142.3421  166.2851 C.ar    1  UNL1        0.0045
     19 C         142.5902  141.4622  167.4579 C.ar    1  UNL1        0.0341
     20 C         141.5110  140.6284  168.0827 C.ar    1  UNL1        0.1285
     21 N         140.1155  140.6745  167.5347 N.ar    1  UNL1       -0.2294
     22 C         139.7991  141.5545  166.3618 C.ar    1  UNL1        0.1003
     23 N         141.8275  139.7484  169.2556 N.pl3   1  UNL1       -0.3169
     24 H         141.9677  138.7830  169.1230 H       1  UNL1        0.1482
     25 C         141.9302  140.3394  170.6305 C.3     1  UNL1        0.1057
     26 C         141.1085  141.5406  170.9938 C.3     1  UNL1        0.0936
     27 N         141.5245  142.9035  170.5253 N.3     1  UNL1       -0.2689
     28 C         142.9452  143.3537  170.6953 C.3     1  UNL1        0.0897
     29 C         140.5198  143.8161  169.8867 C.3     1  UNL1        0.0897
     30 C         144.2836  140.2636  162.4665 C.3     1  UNL1        0.1191
     31 C         143.0692  140.3416  161.5895 C.3     1  UNL1        0.0524
     32 C         143.4080  141.7621  161.2468 C.3     1  UNL1        0.0947
     33 C         144.6224  141.6840  162.1238 C.3     1  UNL1        0.0524
     34 C         144.6364  139.1880  164.8051 C.3     1  UNL1        0.1740
     35 O         144.9027  139.2039  163.3290 O.3     1  UNL1       -0.3534
@<TRIPOS>BOND
     1    34    35    1
     2    30    35    1
     3    30    31    1
     4    31    32    1
     5    32     1    1
     6     1     2   ar
     7     2     3    2
     8     2     4   ar
     9     4     5    1
    10     4     6   ar
    11     6     7   ar
    12     7     8   ar
    13     8     9   ar
    14     9    10   ar
    15    10    11   ar
    16    11    12    1
    17    11    13   ar
    18    13    17    1
    19    17    18   ar
    20    18    19   ar
    21    19    20   ar
    22    20    23    1
    23    23    25    1
    24    25    26    1
    25    26    27    1
    26    27    28    1
    27    27    29    1
    28    20    21   ar
    29    21    22   ar
    30    13    14   ar
    31    14    15   ar
    32    15    16   ar
    33    32    33    1
    34    33    30    1
    35    16     1   ar
    36    16     6   ar
    37    15     9   ar
    38    22    17   ar
    39    23    24    1
@<TRIPOS>MOLECULE
*****
 35 39 0 0 0
SMALL
GASTEIGER

@<TRIPOS>ATOM
      1 N         141.1095  143.7437  160.4933 N.ar    1  UNL1       -0.2815
      2 C         141.1127  144.5050  159.2009 C.ar    1  UNL1        0.3316
      3 O         141.9773  145.6869  158.8760 O.2     1  UNL1       -0.2463
      4 N         140.0995  143.8769  158.2905 N.ar    1  UNL1       -0.2765
      5 C         139.7729  144.3204  156.8953 C.3     1  UNL1        0.1352
      6 C         139.4701  142.7274  159.0203 C.ar    1  UNL1        0.0989
      7 C         138.4092  141.7450  158.6209 C.ar    1  UNL1        0.1175
      8 N         137.9726  140.6803  159.5831 N.ar    1  UNL1       -0.2422
      9 C         138.5969  140.5980  160.9445 C.ar    1  UNL1        0.0850
     10 C         138.1602  139.5332  161.9067 C.ar    1  UNL1        0.0488
     11 C         138.7845  139.4509  163.2681 C.ar    1  UNL1        0.1416
     12 F         138.3478  138.3862  164.2303 F       1  UNL1       -0.2041
     13 C         139.8454  140.4334  163.6674 C.ar    1  UNL1        0.0291
     14 C         140.2820  141.4981  162.7053 C.ar    1  UNL1        0.0053
     15 C         139.6577  141.5804  161.3438 C.ar    1  UNL1        0.0352
     16 C         140.0943  142.6451  160.3817 C.ar    1  UNL1        0.0826
     17 C         140.4696  140.3510  165.0289 C.ar    1  UNL1        0.0214
     18 C         139.6072  140.4154  166.2545 C.ar    1  UNL1        0.0045
     19 C         140.2314  140.3331  167.6160 C.ar    1  UNL1        0.0341
     20 C         141.7181  140.1864  167.7518 C.ar    1  UNL1        0.1285
     21 N         142.5804  140.1221  166.5262 N.ar    1  UNL1       -0.2294
     22 C         141.9562  140.2044  165.1647 C.ar    1  UNL1        0.1003
     23 N         142.3423  140.1041  169.1132 N.pl3   1  UNL1       -0.3169
     24 H         143.3210  140.0473  169.2034 H       1  UNL1        0.1482
     25 C         141.4753  140.1082  170.3373 C.3     1  UNL1        0.1057
     26 C         141.3270  141.3622  171.1470 C.3     1  UNL1        0.0936
     27 N         141.6439  142.6934  170.5329 N.3     1  UNL1       -0.2689
     28 C         143.0374  143.2430  170.6116 C.3     1  UNL1        0.0897
     29 C         140.5674  143.4752  169.8400 C.3     1  UNL1        0.0897
     30 C         143.1879  144.4363  163.3769 C.3     1  UNL1        0.1191
     31 C         141.7955  144.8067  162.9594 C.3     1  UNL1        0.0524
     32 C         141.9703  144.0306  161.6878 C.3     1  UNL1        0.0947
     33 C         143.3627  143.6602  162.1053 C.3     1  UNL1        0.0524
     34 C         144.5126  143.5988  165.4490 C.3     1  UNL1        0.1740
     35 O         144.0487  144.7232  164.5713 O.3     1  UNL1       -0.3534
@<TRIPOS>BOND
     1    34    35    1
     2    30    35    1
     3    30    31    1
     4    31    32    1
     5    32     1    1
     6     1     2   ar
     7     2     3    2
     8     2     4   ar
     9     4     5    1
    10     4     6   ar
    11     6     7   ar
    12     7     8   ar
    13     8     9   ar
    14     9    10   ar
    15    10    11   ar
    16    11    12    1
    17    11    13   ar
    18    13    17    1
    19    17    18   ar
    20    18    19   ar
    21    19    20   ar
    22    20    23    1
    23    23    25    1
    24    25    26    1
    25    26    27    1
    26    27    28    1
    27    27    29    1
    28    20    21   ar
    29    21    22   ar
    30    13    14   ar
    31    14    15   ar
    32    15    16   ar
    33    32    33    1
    34    33    30    1
    35    16     1   ar
    36    16     6   ar
    37    15     9   ar
    38    22    17   ar
    39    23    24    1
@<TRIPOS>MOLECULE
*****
 35 39 0 0 0
SMALL
GASTEIGER

@<TRIPOS>ATOM
      1 N         139.2498  139.4837  166.5288 N.ar    1  UNL1       -0.2815
      2 C         138.3013  139.2016  167.6561 C.ar    1  UNL1        0.3316
      3 O         137.0919  138.3168  167.5903 O.2     1  UNL1       -0.2463
      4 N         138.7747  139.9597  168.8607 N.ar    1  UNL1       -0.2765
      5 C         138.1218  139.9661  170.2112 C.3     1  UNL1        0.1352
      6 C         140.0157  140.7104  168.4779 C.ar    1  UNL1        0.0989
      7 C         140.9163  141.6237  169.2555 C.ar    1  UNL1        0.1175
      8 N         142.1105  142.2429  168.5918 N.ar    1  UNL1       -0.2422
      9 C         142.4041  141.9487  167.1506 C.ar    1  UNL1        0.0850
     10 C         143.5983  142.5679  166.4869 C.ar    1  UNL1        0.0488
     11 C         143.8919  142.2738  165.0456 C.ar    1  UNL1        0.1416
     12 F         145.0861  142.8929  164.3819 F       1  UNL1       -0.2041
     13 C         142.9913  141.3603  164.2680 C.ar    1  UNL1        0.0291
     14 C         141.7971  140.7412  164.9317 C.ar    1  UNL1        0.0053
     15 C         141.5035  141.0354  166.3730 C.ar    1  UNL1        0.0352
     16 C         140.3093  140.4162  167.0367 C.ar    1  UNL1        0.0826
     17 C         143.2848  141.0662  162.8268 C.ar    1  UNL1        0.0214
     18 C         143.0314  142.1115  161.7812 C.ar    1  UNL1        0.0045
     19 C         143.3250  141.8173  160.3399 C.ar    1  UNL1        0.0341
     20 C         143.8720  140.4778  159.9442 C.ar    1  UNL1        0.1285
     21 N         144.1255  139.4326  160.9898 N.ar    1  UNL1       -0.2294
     22 C         143.8319  139.7268  162.4310 C.ar    1  UNL1        0.1003
     23 N         144.1656  140.1836  158.5030 N.pl3   1  UNL1       -0.3169
     24 H         144.0921  139.2624  158.1637 H       1  UNL1        0.1482
     25 C         144.5712  141.2932  157.5785 C.3     1  UNL1        0.1057
     26 C         145.4738  141.0078  156.4150 C.3     1  UNL1        0.0936
     27 N         146.7244  141.8129  156.2207 N.3     1  UNL1       -0.2689
     28 C         147.5841  141.5835  155.0131 C.3     1  UNL1        0.0897
     29 C         147.1154  142.8475  157.2341 C.3     1  UNL1        0.0897
     30 C         139.0216  138.1483  163.1704 C.3     1  UNL1        0.1191
     31 C         139.6723  137.7038  164.4467 C.3     1  UNL1        0.0524
     32 C         139.1553  138.9305  165.1377 C.3     1  UNL1        0.0947
     33 C         138.5045  139.3751  163.8614 C.3     1  UNL1        0.0524
     34 C         139.5693  138.3246  160.6368 C.3     1  UNL1        0.1740
     35 O         138.9271  137.5951  161.7793 O.3     1  UNL1       -0.3534
@<TRIPOS>BOND
     1    34    35    1
     2    30    35    1
     3    30    31    1
     4    31    32    1
     5    32     1    1
     6     1     2   ar
     7     2     3    2
     8     2     4   ar
     9     4     5    1
    10     4     6   ar
    11     6     7   ar
    12     7     8   ar
    13     8     9   ar
    14     9    10   ar
    15    10    11   ar
    16    11    12    1
    17    11    13   ar
    18    13    17    1
    19    17    18   ar
    20    18    19   ar
    21    19    20   ar
    22    20    23    1
    23    23    25    1
    24    25    26    1
    25    26    27    1
    26    27    28    1
    27    27    29    1
    28    20    21   ar
    29    21    22   ar
    30    13    14   ar
    31    14    15   ar
    32    15    16   ar
    33    32    33    1
    34    33    30    1
    35    16     1   ar
    36    16     6   ar
    37    15     9   ar
    38    22    17   ar
    39    23    24    1
@<TRIPOS>MOLECULE
*****
 35 39 0 0 0
SMALL
GASTEIGER

@<TRIPOS>ATOM
      1 N         142.8350  139.7453  165.9159 N.ar    1  UNL1       -0.2815
      2 C         143.2237  138.8774  167.0759 C.ar    1  UNL1        0.3316
      3 O         144.1212  137.6770  167.0171 O.2     1  UNL1       -0.2463
      4 N         142.5572  139.4207  168.3049 N.ar    1  UNL1       -0.2765
      5 C         142.6712  138.8589  169.6911 C.3     1  UNL1        0.1352
      6 C         141.7567  140.6243  167.9046 C.ar    1  UNL1        0.0989
      7 C         140.8936  141.5636  168.6937 C.ar    1  UNL1        0.1175
      8 N         140.2022  142.7035  168.0063 N.ar    1  UNL1       -0.2422
      9 C         140.3739  142.9041  166.5298 C.ar    1  UNL1        0.0850
     10 C         139.6824  144.0441  165.8424 C.ar    1  UNL1        0.0488
     11 C         139.8541  144.2448  164.3658 C.ar    1  UNL1        0.1416
     12 F         139.1628  145.3847  163.6784 F       1  UNL1       -0.2041
     13 C         140.7173  143.3054  163.5766 C.ar    1  UNL1        0.0291
     14 C         141.4087  142.1655  164.2640 C.ar    1  UNL1        0.0053
     15 C         141.2370  141.9649  165.7406 C.ar    1  UNL1        0.0352
     16 C         141.9284  140.8250  166.4280 C.ar    1  UNL1        0.0826
     17 C         140.8890  143.5061  162.1001 C.ar    1  UNL1        0.0214
     18 C         139.7645  143.1786  161.1629 C.ar    1  UNL1        0.0045
     19 C         139.9362  143.3793  159.6863 C.ar    1  UNL1        0.0341
     20 C         141.2324  143.9074  159.1469 C.ar    1  UNL1        0.1285
     21 N         142.3569  144.2349  160.0841 N.ar    1  UNL1       -0.2294
     22 C         142.1852  144.0342  161.5607 C.ar    1  UNL1        0.1003
     23 N         141.4042  144.1081  157.6704 N.pl3   1  UNL1       -0.3169
     24 H         141.5704  143.3345  157.0845 H       1  UNL1        0.1482
     25 C         141.3227  145.4874  157.0864 C.3     1  UNL1        0.1057
     26 C         140.0533  146.2779  157.2042 C.3     1  UNL1        0.0936
     27 N         139.2027  146.5158  155.9919 N.3     1  UNL1       -0.2689
     28 C         139.0994  147.8931  155.4067 C.3     1  UNL1        0.0897
     29 C         138.4553  145.3765  155.3646 C.3     1  UNL1        0.0897
     30 C         143.8989  139.3106  162.4817 C.3     1  UNL1        0.1191
     31 C         142.7775  138.7736  163.3208 C.3     1  UNL1        0.0524
     32 C         143.2757  139.5652  164.4934 C.3     1  UNL1        0.0947
     33 C         144.3972  140.1023  163.6543 C.3     1  UNL1        0.0524
     34 C         143.7739  140.0078  159.9821 C.3     1  UNL1        0.1740
     35 O         144.3396  139.1305  161.0592 O.3     1  UNL1       -0.3534
@<TRIPOS>BOND
     1    34    35    1
     2    30    35    1
     3    30    31    1
     4    31    32    1
     5    32     1    1
     6     1     2   ar
     7     2     3    2
     8     2     4   ar
     9     4     5    1
    10     4     6   ar
    11     6     7   ar
    12     7     8   ar
    13     8     9   ar
    14     9    10   ar
    15    10    11   ar
    16    11    12    1
    17    11    13   ar
    18    13    17    1
    19    17    18   ar
    20    18    19   ar
    21    19    20   ar
    22    20    23    1
    23    23    25    1
    24    25    26    1
    25    26    27    1
    26    27    28    1
    27    27    29    1
    28    20    21   ar
    29    21    22   ar
    30    13    14   ar
    31    14    15   ar
    32    15    16   ar
    33    32    33    1
    34    33    30    1
    35    16     1   ar
    36    16     6   ar
    37    15     9   ar
    38    22    17   ar
    39    23    24    1
@<TRIPOS>MOLECULE
*****
 35 39 0 0 0
SMALL
GASTEIGER

@<TRIPOS>ATOM
      1 N         139.9782  142.8550  160.1882 N.ar    1  UNL1       -0.2815
      2 C         140.0898  143.6172  158.9012 C.ar    1  UNL1        0.3316
      3 O         139.6020  145.0149  158.6591 O.2     1  UNL1       -0.2463
      4 N         140.7749  142.7364  157.8987 N.ar    1  UNL1       -0.2765
      5 C         141.0924  143.0986  156.4782 C.3     1  UNL1        0.1352
      6 C         141.0866  141.4298  158.5662 C.ar    1  UNL1        0.0989
      7 C         141.7553  140.1828  158.0684 C.ar    1  UNL1        0.1175
      8 N         141.9315  139.0091  158.9856 N.ar    1  UNL1       -0.2422
      9 C         141.4391  139.0823  160.4005 C.ar    1  UNL1        0.0850
     10 C         141.6154  137.9085  161.3177 C.ar    1  UNL1        0.0488
     11 C         141.1230  137.9817  162.7327 C.ar    1  UNL1        0.1416
     12 F         141.2993  136.8080  163.6499 F       1  UNL1       -0.2041
     13 C         140.4544  139.2288  163.2305 C.ar    1  UNL1        0.0291
     14 C         140.2781  140.4026  162.3134 C.ar    1  UNL1        0.0053
     15 C         140.7705  140.3293  160.8984 C.ar    1  UNL1        0.0352
     16 C         140.5943  141.5031  159.9812 C.ar    1  UNL1        0.0826
     17 C         139.9620  139.3021  164.6455 C.ar    1  UNL1        0.0214
     18 C         138.5804  138.8261  164.9845 C.ar    1  UNL1        0.0045
     19 C         138.0880  138.8994  166.3995 C.ar    1  UNL1        0.0341
     20 C         138.9772  139.4486  167.4755 C.ar    1  UNL1        0.1285
     21 N         140.3587  139.9246  167.1365 N.ar    1  UNL1       -0.2294
     22 C         140.8511  139.8513  165.7215 C.ar    1  UNL1        0.1003
     23 N         138.4848  139.5219  168.8905 N.pl3   1  UNL1       -0.3169
     24 H         137.7734  138.9139  169.1962 H       1  UNL1        0.1482
     25 C         139.0764  140.5215  169.8396 C.3     1  UNL1        0.1057
     26 C         140.1522  140.1015  170.7968 C.3     1  UNL1        0.0936
     27 N         141.5913  140.3766  170.4753 N.3     1  UNL1       -0.2689
     28 C         142.1411  141.7642  170.6247 C.3     1  UNL1        0.0897
     29 C         142.4806  139.2641  170.0046 C.3     1  UNL1        0.0897
     30 C         138.4838  144.0659  163.2565 C.3     1  UNL1        0.1191
     31 C         138.0905  143.0698  162.2062 C.3     1  UNL1        0.0524
     32 C         139.3592  143.3565  161.4591 C.3     1  UNL1        0.0947
     33 C         139.7526  144.3526  162.5095 C.3     1  UNL1        0.0524
     34 C         138.7286  144.8569  165.7191 C.3     1  UNL1        0.1740
     35 O         137.8648  144.5674  164.5275 O.3     1  UNL1       -0.3534
@<TRIPOS>BOND
     1    34    35    1
     2    30    35    1
     3    30    31    1
     4    31    32    1
     5    32     1    1
     6     1     2   ar
     7     2     3    2
     8     2     4   ar
     9     4     5    1
    10     4     6   ar
    11     6     7   ar
    12     7     8   ar
    13     8     9   ar
    14     9    10   ar
    15    10    11   ar
    16    11    12    1
    17    11    13   ar
    18    13    17    1
    19    17    18   ar
    20    18    19   ar
    21    19    20   ar
    22    20    23    1
    23    23    25    1
    24    25    26    1
    25    26    27    1
    26    27    28    1
    27    27    29    1
    28    20    21   ar
    29    21    22   ar
    30    13    14   ar
    31    14    15   ar
    32    15    16   ar
    33    32    33    1
    34    33    30    1
    35    16     1   ar
    36    16     6   ar
    37    15     9   ar
    38    22    17   ar
    39    23    24    1
@<TRIPOS>MOLECULE
*****
 35 39 0 0 0
SMALL
GASTEIGER

@<TRIPOS>ATOM
      1 N         142.8249  139.6874  165.9166 N.ar    1  UNL1       -0.2815
      2 C         143.1781  138.8692  167.1231 C.ar    1  UNL1        0.3316
      3 O         144.0611  137.6568  167.1386 O.2     1  UNL1       -0.2463
      4 N         142.4932  139.4763  168.3116 N.ar    1  UNL1       -0.2765
      5 C         142.5711  138.9776  169.7241 C.3     1  UNL1        0.1352
      6 C         141.7167  140.6697  167.8395 C.ar    1  UNL1        0.0989
      7 C         140.8495  141.6544  168.5663 C.ar    1  UNL1        0.1175
      8 N         140.1872  142.7696  167.8128 N.ar    1  UNL1       -0.2422
      9 C         140.3922  142.9001  166.3326 C.ar    1  UNL1        0.0850
     10 C         139.7299  144.0154  165.5792 C.ar    1  UNL1        0.0488
     11 C         139.9349  144.1459  164.0990 C.ar    1  UNL1        0.1416
     12 F         139.2727  145.2610  163.3455 F       1  UNL1       -0.2041
     13 C         140.8022  143.1611  163.3722 C.ar    1  UNL1        0.0291
     14 C         141.4644  142.0459  164.1257 C.ar    1  UNL1        0.0053
     15 C         141.2594  141.9154  165.6059 C.ar    1  UNL1        0.0352
     16 C         141.9217  140.8002  166.3593 C.ar    1  UNL1        0.0826
     17 C         141.0072  143.2915  161.8921 C.ar    1  UNL1        0.0214
     18 C         140.3711  142.3059  160.9571 C.ar    1  UNL1        0.0045
     19 C         140.5761  142.4364  159.4769 C.ar    1  UNL1        0.0341
     20 C         141.4171  143.5525  158.9317 C.ar    1  UNL1        0.1285
     21 N         142.0531  144.5380  159.8667 N.ar    1  UNL1       -0.2294
     22 C         141.8481  144.4075  161.3469 C.ar    1  UNL1        0.1003
     23 N         141.6221  143.6830  157.4515 N.pl3   1  UNL1       -0.3169
     24 H         141.0103  144.2390  156.9169 H       1  UNL1        0.1482
     25 C         142.7593  142.9662  156.7858 C.3     1  UNL1        0.1057
     26 C         144.0382  142.7312  157.5336 C.3     1  UNL1        0.0936
     27 N         145.0943  141.8392  156.9515 N.3     1  UNL1       -0.2689
     28 C         144.7306  140.4711  156.4554 C.3     1  UNL1        0.0897
     29 C         146.5142  142.3153  156.8654 C.3     1  UNL1        0.0897
     30 C         143.9542  139.0825  162.5294 C.3     1  UNL1        0.1191
     31 C         144.4865  139.8485  163.7041 C.3     1  UNL1        0.0524
     32 C         143.2927  139.4369  164.5136 C.3     1  UNL1        0.0947
     33 C         142.7603  138.6708  163.3389 C.3     1  UNL1        0.0524
     34 C         143.8071  139.5860  159.9849 C.3     1  UNL1        0.1740
     35 O         144.4220  138.8319  161.1265 O.3     1  UNL1       -0.3534
@<TRIPOS>BOND
     1    34    35    1
     2    30    35    1
     3    30    31    1
     4    31    32    1
     5    32     1    1
     6     1     2   ar
     7     2     3    2
     8     2     4   ar
     9     4     5    1
    10     4     6   ar
    11     6     7   ar
    12     7     8   ar
    13     8     9   ar
    14     9    10   ar
    15    10    11   ar
    16    11    12    1
    17    11    13   ar
    18    13    17    1
    19    17    18   ar
    20    18    19   ar
    21    19    20   ar
    22    20    23    1
    23    23    25    1
    24    25    26    1
    25    26    27    1
    26    27    28    1
    27    27    29    1
    28    20    21   ar
    29    21    22   ar
    30    13    14   ar
    31    14    15   ar
    32    15    16   ar
    33    32    33    1
    34    33    30    1
    35    16     1   ar
    36    16     6   ar
    37    15     9   ar
    38    22    17   ar
    39    23    24    1
@<TRIPOS>MOLECULE
*****
 35 39 0 0 0
SMALL
GASTEIGER

@<TRIPOS>ATOM
      1 N         142.4926  140.8549  160.2040 N.ar    1  UNL1       -0.2815
      2 C         143.0632  140.8685  158.8168 C.ar    1  UNL1        0.3316
      3 O         144.3910  140.3061  158.4040 O.2     1  UNL1       -0.2463
      4 N         142.0726  141.5434  157.9149 N.ar    1  UNL1       -0.2765
      5 C         142.2361  141.7743  156.4418 C.3     1  UNL1        0.1352
      6 C         140.8899  141.9468  158.7446 C.ar    1  UNL1        0.0989
      7 C         139.6102  142.6466  158.3947 C.ar    1  UNL1        0.1175
      8 N         138.5900  142.9209  159.4596 N.ar    1  UNL1       -0.2422
      9 C         138.8496  142.4954  160.8744 C.ar    1  UNL1        0.0850
     10 C         137.8294  142.7697  161.9393 C.ar    1  UNL1        0.0488
     11 C         138.0889  142.3442  163.3540 C.ar    1  UNL1        0.1416
     12 F         137.0688  142.6185  164.4189 F       1  UNL1       -0.2041
     13 C         139.3688  141.6444  163.7039 C.ar    1  UNL1        0.0291
     14 C         140.3889  141.3701  162.6390 C.ar    1  UNL1        0.0053
     15 C         140.1293  141.7956  161.2243 C.ar    1  UNL1        0.0352
     16 C         141.1495  141.5213  160.1594 C.ar    1  UNL1        0.0826
     17 C         139.6283  141.2189  165.1187 C.ar    1  UNL1        0.0214
     18 C         140.6776  141.9177  165.9315 C.ar    1  UNL1        0.0045
     19 C         140.9372  141.4922  167.3463 C.ar    1  UNL1        0.0341
     20 C         140.1475  140.3678  167.9482 C.ar    1  UNL1        0.1285
     21 N         139.0983  139.6690  167.1353 N.ar    1  UNL1       -0.2294
     22 C         138.8387  140.0945  165.7206 C.ar    1  UNL1        0.1003
     23 N         140.4071  139.9423  169.3630 N.pl3   1  UNL1       -0.3169
     24 H         140.9117  139.1166  169.5439 H       1  UNL1        0.1482
     25 C         139.8977  140.7749  170.5020 C.3     1  UNL1        0.1057
     26 C         140.8314  141.6881  171.2397 C.3     1  UNL1        0.0936
     27 N         141.4118  142.8856  170.5476 N.3     1  UNL1       -0.2689
     28 C         140.5043  143.9088  169.9315 C.3     1  UNL1        0.0897
     29 C         142.8997  143.0600  170.4716 C.3     1  UNL1        0.0897
     30 C         144.0793  139.4584  163.1445 C.3     1  UNL1        0.1191
     31 C         142.8822  139.1008  162.3143 C.3     1  UNL1        0.0524
     32 C         143.1498  140.2764  161.4220 C.3     1  UNL1        0.0947
     33 C         144.3470  140.6340  162.2521 C.3     1  UNL1        0.0524
     34 C         143.9085  138.5106  165.5574 C.3     1  UNL1        0.1740
     35 O         144.7365  138.8799  164.3624 O.3     1  UNL1       -0.3534
@<TRIPOS>BOND
     1    34    35    1
     2    30    35    1
     3    30    31    1
     4    31    32    1
     5    32     1    1
     6     1     2   ar
     7     2     3    2
     8     2     4   ar
     9     4     5    1
    10     4     6   ar
    11     6     7   ar
    12     7     8   ar
    13     8     9   ar
    14     9    10   ar
    15    10    11   ar
    16    11    12    1
    17    11    13   ar
    18    13    17    1
    19    17    18   ar
    20    18    19   ar
    21    19    20   ar
    22    20    23    1
    23    23    25    1
    24    25    26    1
    25    26    27    1
    26    27    28    1
    27    27    29    1
    28    20    21   ar
    29    21    22   ar
    30    13    14   ar
    31    14    15   ar
    32    15    16   ar
    33    32    33    1
    34    33    30    1
    35    16     1   ar
    36    16     6   ar
    37    15     9   ar
    38    22    17   ar
    39    23    24    1
