@<TRIPOS>MOLECULE
*****
 24 26 0 0 0
SMALL
GASTEIGER

@<TRIPOS>ATOM
      1 O         138.8226  143.9392  164.6387 O.2     1  UNL1       -0.2651
      2 C         140.3060  143.7419  164.5360 C.ar    1  UNL1        0.2807
      3 C         141.1750  144.8468  164.0124 C.ar    1  UNL1        0.0674
      4 C         142.6584  144.6496  163.9096 C.ar    1  UNL1        0.0641
      5 C         143.2728  143.3475  164.3304 C.ar    1  UNL1        0.2424
      6 N         142.4039  142.2427  164.8539 N.ar    1  UNL1       -0.1248
      7 N         140.9204  142.4399  164.9567 N.ar    1  UNL1       -0.1916
      8 C         140.0514  141.3349  165.4802 C.ar    1  UNL1        0.0861
      9 C         140.1198  140.9491  166.9282 C.ar    1  UNL1        0.0201
     10 C         139.2509  139.8443  167.4517 C.ar    1  UNL1        0.0129
     11 C         138.3135  139.1251  166.5274 C.ar    1  UNL1        0.0578
     12 CL        137.4446  138.0203  167.0510 Cl      1  UNL1       -0.0822
     13 C         138.2452  139.5110  165.0795 C.ar    1  UNL1        0.0129
     14 C         139.1142  140.6159  164.5559 C.ar    1  UNL1        0.0201
     15 O         144.7563  143.1503  164.2276 O.3     1  UNL1       -0.4592
     16 C         145.3147  142.1521  163.2571 C.3     1  UNL1        0.2086
     17 C         145.2253  140.6849  163.5556 C.3     1  UNL1        0.0647
     18 C         144.3870  139.7928  162.6885 C.3     1  UNL1        0.0759
     19 N         143.2977  138.9618  163.2991 N.3     1  UNL1       -0.2726
     20 C         143.1772  138.8621  164.7909 C.3     1  UNL1        0.0721
     21 C         142.0879  138.0310  165.4014 C.3     1  UNL1        0.0174
     22 C         141.1191  137.2997  164.5202 C.3     1  UNL1        0.0029
     23 C         141.2397  137.3993  163.0283 C.3     1  UNL1        0.0174
     24 C         142.3290  138.2304  162.4178 C.3     1  UNL1        0.0721
@<TRIPOS>BOND
     1     1     2    2
     2     2     3   ar
     3     3     4   ar
     4     4     5   ar
     5     5    15    1
     6    15    16    1
     7    16    17    1
     8    17    18    1
     9    18    19    1
    10    19    20    1
    11    20    21    1
    12    21    22    1
    13    22    23    1
    14    23    24    1
    15     5     6   ar
    16     6     7   ar
    17     7     8    1
    18     8     9   ar
    19     9    10   ar
    20    10    11   ar
    21    11    12    1
    22    11    13   ar
    23    13    14   ar
    24     7     2   ar
    25    14     8   ar
    26    24    19    1
@<TRIPOS>MOLECULE
*****
 24 26 0 0 0
SMALL
GASTEIGER

@<TRIPOS>ATOM
      1 O         144.5519  143.1693  165.3643 O.2     1  UNL1       -0.2651
      2 C         143.1677  143.6032  164.9827 C.ar    1  UNL1        0.2807
      3 C         142.9753  144.6771  163.9533 C.ar    1  UNL1        0.0674
      4 C         141.5911  145.1110  163.5717 C.ar    1  UNL1        0.0641
      5 C         140.3992  144.4709  164.2194 C.ar    1  UNL1        0.2424
      6 N         140.5915  143.3969  165.2487 N.ar    1  UNL1       -0.1248
      7 N         141.9757  142.9631  165.6304 N.ar    1  UNL1       -0.1916
      8 C         142.1680  141.8891  166.6598 C.ar    1  UNL1        0.0861
      9 C         141.9643  140.4499  166.2891 C.ar    1  UNL1        0.0201
     10 C         142.1566  139.3759  167.3184 C.ar    1  UNL1        0.0129
     11 C         142.5526  139.7410  168.7185 C.ar    1  UNL1        0.0578
     12 CL        142.7449  138.6670  169.7478 Cl      1  UNL1       -0.0822
     13 C         142.7563  141.1802  169.0891 C.ar    1  UNL1        0.0129
     14 C         142.5640  142.2542  168.0597 C.ar    1  UNL1        0.0201
     15 O         139.0149  144.9047  163.8377 O.3     1  UNL1       -0.4592
     16 C         138.1533  144.0095  162.9975 C.3     1  UNL1        0.2086
     17 C         137.5543  142.7700  163.5933 C.3     1  UNL1        0.0647
     18 C         137.6666  141.4605  162.8703 C.3     1  UNL1        0.0759
     19 N         138.0910  140.2280  163.6124 N.3     1  UNL1       -0.2726
     20 C         138.1433  140.2359  165.1115 C.3     1  UNL1        0.0721
     21 C         138.5677  139.0034  165.8536 C.3     1  UNL1        0.0174
     22 C         138.9398  137.7630  165.0968 C.3     1  UNL1        0.0029
     23 C         138.8874  137.7550  163.5977 C.3     1  UNL1        0.0174
     24 C         138.4630  138.9876  162.8555 C.3     1  UNL1        0.0721
@<TRIPOS>BOND
     1     1     2    2
     2     2     3   ar
     3     3     4   ar
     4     4     5   ar
     5     5    15    1
     6    15    16    1
     7    16    17    1
     8    17    18    1
     9    18    19    1
    10    19    20    1
    11    20    21    1
    12    21    22    1
    13    22    23    1
    14    23    24    1
    15     5     6   ar
    16     6     7   ar
    17     7     8    1
    18     8     9   ar
    19     9    10   ar
    20    10    11   ar
    21    11    12    1
    22    11    13   ar
    23    13    14   ar
    24     7     2   ar
    25    14     8   ar
    26    24    19    1
@<TRIPOS>MOLECULE
*****
 24 26 0 0 0
SMALL
GASTEIGER

@<TRIPOS>ATOM
      1 O         143.4239  137.9810  166.0110 O.2     1  UNL1       -0.2651
      2 C         143.7945  139.3092  165.4206 C.ar    1  UNL1        0.2807
      3 C         144.8921  139.3972  164.4021 C.ar    1  UNL1        0.0674
      4 C         145.2627  140.7254  163.8118 C.ar    1  UNL1        0.0641
      5 C         144.5358  141.9656  164.2400 C.ar    1  UNL1        0.2424
      6 N         143.4382  141.8776  165.2586 N.ar    1  UNL1       -0.1248
      7 N         143.0676  140.5494  165.8489 N.ar    1  UNL1       -0.1916
      8 C         141.9699  140.4614  166.8675 C.ar    1  UNL1        0.0861
      9 C         142.2503  140.7946  168.3029 C.ar    1  UNL1        0.0201
     10 C         141.1528  140.7066  169.3215 C.ar    1  UNL1        0.0129
     11 C         139.7747  140.2854  168.9047 C.ar    1  UNL1        0.0578
     12 CL        138.6771  140.1975  169.9233 Cl      1  UNL1       -0.0822
     13 C         139.4943  139.9523  167.4693 C.ar    1  UNL1        0.0129
     14 C         140.5919  140.0402  166.4507 C.ar    1  UNL1        0.0201
     15 O         144.9064  143.2938  163.6497 O.3     1  UNL1       -0.4592
     16 C         143.8742  144.1078  162.9273 C.3     1  UNL1        0.2086
     17 C         142.9591  145.0130  163.6974 C.3     1  UNL1        0.0647
     18 C         141.6355  145.4128  163.1156 C.3     1  UNL1        0.0759
     19 N         140.3794  144.7313  163.5714 N.3     1  UNL1       -0.2726
     20 C         140.4011  143.8542  164.7880 C.3     1  UNL1        0.0721
     21 C         139.1450  143.1727  165.2438 C.3     1  UNL1        0.0174
     22 C         137.8671  143.3684  164.4830 C.3     1  UNL1        0.0029
     23 C         137.8454  144.2456  163.2664 C.3     1  UNL1        0.0174
     24 C         139.1015  144.9271  162.8106 C.3     1  UNL1        0.0721
@<TRIPOS>BOND
     1     1     2    2
     2     2     3   ar
     3     3     4   ar
     4     4     5   ar
     5     5    15    1
     6    15    16    1
     7    16    17    1
     8    17    18    1
     9    18    19    1
    10    19    20    1
    11    20    21    1
    12    21    22    1
    13    22    23    1
    14    23    24    1
    15     5     6   ar
    16     6     7   ar
    17     7     8    1
    18     8     9   ar
    19     9    10   ar
    20    10    11   ar
    21    11    12    1
    22    11    13   ar
    23    13    14   ar
    24     7     2   ar
    25    14     8   ar
    26    24    19    1
@<TRIPOS>MOLECULE
*****
 24 26 0 0 0
SMALL
GASTEIGER

@<TRIPOS>ATOM
      1 O         143.7766  138.2385  165.8435 O.2     1  UNL1       -0.2651
      2 C         143.8089  139.4478  164.9567 C.ar    1  UNL1        0.2807
      3 C         145.1000  139.8840  164.3300 C.ar    1  UNL1        0.0674
      4 C         145.1323  141.0933  163.4431 C.ar    1  UNL1        0.0641
      5 C         143.8735  141.8664  163.1829 C.ar    1  UNL1        0.2424
      6 N         142.5824  141.4302  163.8096 N.ar    1  UNL1       -0.1248
      7 N         142.5501  140.2209  164.6965 N.ar    1  UNL1       -0.1916
      8 C         141.2590  139.7846  165.3232 C.ar    1  UNL1        0.0861
      9 C         140.3353  138.8679  164.5772 C.ar    1  UNL1        0.0201
     10 C         139.0442  138.4317  165.2038 C.ar    1  UNL1        0.0129
     11 C         138.6767  138.9122  166.5765 C.ar    1  UNL1        0.0578
     12 CL        137.3855  138.4760  167.2031 Cl      1  UNL1       -0.0822
     13 C         139.6003  139.8290  167.3224 C.ar    1  UNL1        0.0129
     14 C         140.8915  140.2652  166.6957 C.ar    1  UNL1        0.0201
     15 O         143.9058  143.0757  162.2961 O.3     1  UNL1       -0.4592
     16 C         144.0535  144.4423  162.8964 C.3     1  UNL1        0.2086
     17 C         142.8848  145.0942  163.5740 C.3     1  UNL1        0.0647
     18 C         141.5355  145.0821  162.9186 C.3     1  UNL1        0.0759
     19 N         140.4970  144.0931  163.3584 N.3     1  UNL1       -0.2726
     20 C         140.1226  143.9930  164.8074 C.3     1  UNL1        0.0721
     21 C         139.0840  143.0041  165.2472 C.3     1  UNL1        0.0174
     22 C         138.4199  142.1151  164.2379 C.3     1  UNL1        0.0029
     23 C         138.7943  142.2152  162.7887 C.3     1  UNL1        0.0174
     24 C         139.8328  143.2041  162.3490 C.3     1  UNL1        0.0721
@<TRIPOS>BOND
     1     1     2    2
     2     2     3   ar
     3     3     4   ar
     4     4     5   ar
     5     5    15    1
     6    15    16    1
     7    16    17    1
     8    17    18    1
     9    18    19    1
    10    19    20    1
    11    20    21    1
    12    21    22    1
    13    22    23    1
    14    23    24    1
    15     5     6   ar
    16     6     7   ar
    17     7     8    1
    18     8     9   ar
    19     9    10   ar
    20    10    11   ar
    21    11    12    1
    22    11    13   ar
    23    13    14   ar
    24     7     2   ar
    25    14     8   ar
    26    24    19    1
@<TRIPOS>MOLECULE
*****
 24 26 0 0 0
SMALL
GASTEIGER

@<TRIPOS>ATOM
      1 O         142.4252  138.4467  166.1634 O.2     1  UNL1       -0.2651
      2 C         141.2779  138.4673  165.1973 C.ar    1  UNL1        0.2807
      3 C         141.2667  137.5302  164.0261 C.ar    1  UNL1        0.0674
      4 C         140.1195  137.5509  163.0600 C.ar    1  UNL1        0.0641
      5 C         138.9834  138.5086  163.2650 C.ar    1  UNL1        0.2424
      6 N         138.9946  139.4457  164.4362 N.ar    1  UNL1       -0.1248
      7 N         140.1419  139.4251  165.4023 N.ar    1  UNL1       -0.1916
      8 C         140.1530  140.3622  166.5735 C.ar    1  UNL1        0.0861
      9 C         140.6303  141.7737  166.4001 C.ar    1  UNL1        0.0201
     10 C         140.6415  142.7108  167.5713 C.ar    1  UNL1        0.0129
     11 C         140.1753  142.2366  168.9158 C.ar    1  UNL1        0.0578
     12 CL        140.1865  143.1737  170.0870 Cl      1  UNL1       -0.0822
     13 C         139.6980  140.8251  169.0892 C.ar    1  UNL1        0.0129
     14 C         139.6869  139.8880  167.9180 C.ar    1  UNL1        0.0201
     15 O         137.8362  138.5292  162.2989 O.3     1  UNL1       -0.4592
     16 C         137.8623  139.4606  161.1234 C.3     1  UNL1        0.2086
     17 C         137.7888  140.9431  161.3393 C.3     1  UNL1        0.0647
     18 C         139.0360  141.7195  161.6425 C.3     1  UNL1        0.0759
     19 N         139.0294  142.7555  162.7273 N.3     1  UNL1       -0.2726
     20 C         137.8288  142.9055  163.6137 C.3     1  UNL1        0.0721
     21 C         137.8222  143.9414  164.6986 C.3     1  UNL1        0.0174
     22 C         139.0162  144.8273  164.8969 C.3     1  UNL1        0.0029
     23 C         140.2170  144.6773  164.0104 C.3     1  UNL1        0.0174
     24 C         140.2236  143.6414  162.9256 C.3     1  UNL1        0.0721
@<TRIPOS>BOND
     1     1     2    2
     2     2     3   ar
     3     3     4   ar
     4     4     5   ar
     5     5    15    1
     6    15    16    1
     7    16    17    1
     8    17    18    1
     9    18    19    1
    10    19    20    1
    11    20    21    1
    12    21    22    1
    13    22    23    1
    14    23    24    1
    15     5     6   ar
    16     6     7   ar
    17     7     8    1
    18     8     9   ar
    19     9    10   ar
    20    10    11   ar
    21    11    12    1
    22    11    13   ar
    23    13    14   ar
    24     7     2   ar
    25    14     8   ar
    26    24    19    1
@<TRIPOS>MOLECULE
*****
 24 26 0 0 0
SMALL
GASTEIGER

@<TRIPOS>ATOM
      1 O         140.0348  137.0580  164.8406 O.2     1  UNL1       -0.2651
      2 C         139.3471  138.2519  164.2477 C.ar    1  UNL1        0.2807
      3 C         138.6124  138.1247  162.9462 C.ar    1  UNL1        0.0674
      4 C         137.9246  139.3186  162.3533 C.ar    1  UNL1        0.0641
      5 C         137.9716  140.6398  163.0620 C.ar    1  UNL1        0.2424
      6 N         138.7063  140.7671  164.3635 N.ar    1  UNL1       -0.1248
      7 N         139.3940  139.5731  164.9564 N.ar    1  UNL1       -0.1916
      8 C         140.1288  139.7004  166.2580 C.ar    1  UNL1        0.0861
      9 C         139.3657  139.9067  167.5328 C.ar    1  UNL1        0.0201
     10 C         140.1004  140.0340  168.8344 C.ar    1  UNL1        0.0129
     11 C         141.5981  139.9550  168.8611 C.ar    1  UNL1        0.0578
     12 CL        142.3328  140.0823  170.1626 Cl      1  UNL1       -0.0822
     13 C         142.3611  139.7487  167.5862 C.ar    1  UNL1        0.0129
     14 C         141.6264  139.6214  166.2846 C.ar    1  UNL1        0.0201
     15 O         137.2838  141.8338  162.4691 O.3     1  UNL1       -0.4592
     16 C         138.0252  143.1292  162.3203 C.3     1  UNL1        0.2086
     17 C         137.7253  144.2750  163.2408 C.3     1  UNL1        0.0647
     18 C         138.5799  144.5080  164.4514 C.3     1  UNL1        0.0759
     19 N         140.0676  144.3377  164.3633 N.3     1  UNL1       -0.2726
     20 C         140.8695  145.2122  163.4456 C.3     1  UNL1        0.0721
     21 C         142.3572  145.0419  163.3574 C.3     1  UNL1        0.0174
     22 C         143.0430  143.9972  164.1870 C.3     1  UNL1        0.0029
     23 C         142.2410  143.1227  165.1047 C.3     1  UNL1        0.0174
     24 C         140.7533  143.2929  165.1929 C.3     1  UNL1        0.0721
@<TRIPOS>BOND
     1     1     2    2
     2     2     3   ar
     3     3     4   ar
     4     4     5   ar
     5     5    15    1
     6    15    16    1
     7    16    17    1
     8    17    18    1
     9    18    19    1
    10    19    20    1
    11    20    21    1
    12    21    22    1
    13    22    23    1
    14    23    24    1
    15     5     6   ar
    16     6     7   ar
    17     7     8    1
    18     8     9   ar
    19     9    10   ar
    20    10    11   ar
    21    11    12    1
    22    11    13   ar
    23    13    14   ar
    24     7     2   ar
    25    14     8   ar
    26    24    19    1
@<TRIPOS>MOLECULE
*****
 24 26 0 0 0
SMALL
GASTEIGER

@<TRIPOS>ATOM
      1 O         145.3040  139.8221  164.2233 O.2     1  UNL1       -0.2651
      2 C         144.0107  139.2516  163.7213 C.ar    1  UNL1        0.2807
      3 C         143.9613  138.5638  162.3893 C.ar    1  UNL1        0.0674
      4 C         142.6681  137.9933  161.8873 C.ar    1  UNL1        0.0641
      5 C         141.4242  138.1105  162.7173 C.ar    1  UNL1        0.2424
      6 N         141.4736  138.7982  164.0494 N.ar    1  UNL1       -0.1248
      7 N         142.7669  139.3688  164.5514 N.ar    1  UNL1       -0.1916
      8 C         142.8163  140.0565  165.8836 C.ar    1  UNL1        0.0861
      9 C         142.9689  141.5471  165.9529 C.ar    1  UNL1        0.0201
     10 C         143.0183  142.2349  167.2850 C.ar    1  UNL1        0.0129
     11 C         142.9150  141.4321  168.5479 C.ar    1  UNL1        0.0578
     12 CL        142.9644  142.1198  169.8800 Cl      1  UNL1       -0.0822
     13 C         142.7624  139.9415  168.4786 C.ar    1  UNL1        0.0129
     14 C         142.7130  139.2537  167.1464 C.ar    1  UNL1        0.0201
     15 O         140.1310  137.5400  162.2153 O.3     1  UNL1       -0.4592
     16 C         138.8394  137.9079  162.8835 C.3     1  UNL1        0.2086
     17 C         138.3713  139.3330  162.8776 C.3     1  UNL1        0.0647
     18 C         138.0865  140.0342  164.1727 C.3     1  UNL1        0.0759
     19 N         138.3257  141.5100  164.2949 N.3     1  UNL1       -0.2726
     20 C         139.3046  142.0299  165.3055 C.3     1  UNL1        0.0721
     21 C         139.5439  143.5056  165.4277 C.3     1  UNL1        0.0174
     22 C         138.8043  144.4614  164.5393 C.3     1  UNL1        0.0029
     23 C         137.8253  143.9415  163.5286 C.3     1  UNL1        0.0174
     24 C         137.5861  142.4658  163.4064 C.3     1  UNL1        0.0721
@<TRIPOS>BOND
     1     1     2    2
     2     2     3   ar
     3     3     4   ar
     4     4     5   ar
     5     5    15    1
     6    15    16    1
     7    16    17    1
     8    17    18    1
     9    18    19    1
    10    19    20    1
    11    20    21    1
    12    21    22    1
    13    22    23    1
    14    23    24    1
    15     5     6   ar
    16     6     7   ar
    17     7     8    1
    18     8     9   ar
    19     9    10   ar
    20    10    11   ar
    21    11    12    1
    22    11    13   ar
    23    13    14   ar
    24     7     2   ar
    25    14     8   ar
    26    24    19    1
@<TRIPOS>MOLECULE
*****
 24 26 0 0 0
SMALL
GASTEIGER

@<TRIPOS>ATOM
      1 O         144.7457  143.8993  165.6282 O.2     1  UNL1       -0.2651
      2 C         144.5008  142.5608  164.9969 C.ar    1  UNL1        0.2807
      3 C         145.3316  142.1192  163.8288 C.ar    1  UNL1        0.0674
      4 C         145.0867  140.7807  163.1975 C.ar    1  UNL1        0.0641
      5 C         144.0109  139.8839  163.7344 C.ar    1  UNL1        0.2424
      6 N         143.1800  140.3255  164.9026 N.ar    1  UNL1       -0.1248
      7 N         143.4250  141.6640  165.5338 N.ar    1  UNL1       -0.1916
      8 C         142.5941  142.1056  166.7020 C.ar    1  UNL1        0.0861
      9 C         141.1541  142.4747  166.5013 C.ar    1  UNL1        0.0201
     10 C         140.3232  142.9163  167.6694 C.ar    1  UNL1        0.0129
     11 C         140.9323  142.9888  169.0384 C.ar    1  UNL1        0.0578
     12 CL        140.1013  143.4304  170.2065 Cl      1  UNL1       -0.0822
     13 C         142.3722  142.6197  169.2391 C.ar    1  UNL1        0.0129
     14 C         143.2031  142.1781  168.0709 C.ar    1  UNL1        0.0201
     15 O         143.7659  138.5454  163.1032 O.3     1  UNL1       -0.4592
     16 C         142.5187  138.3101  162.3039 C.3     1  UNL1        0.2086
     17 C         141.4396  137.4183  162.8427 C.3     1  UNL1        0.0647
     18 C         139.9980  137.7539  162.5992 C.3     1  UNL1        0.0759
     19 N         139.3682  138.9155  163.3091 N.3     1  UNL1       -0.2726
     20 C         139.2102  140.2296  162.6034 C.3     1  UNL1        0.0721
     21 C         138.5803  141.3912  163.3133 C.3     1  UNL1        0.0174
     22 C         138.1084  141.2387  164.7289 C.3     1  UNL1        0.0029
     23 C         138.2664  139.9245  165.4347 C.3     1  UNL1        0.0174
     24 C         138.8963  138.7629  164.7248 C.3     1  UNL1        0.0721
@<TRIPOS>BOND
     1     1     2    2
     2     2     3   ar
     3     3     4   ar
     4     4     5   ar
     5     5    15    1
     6    15    16    1
     7    16    17    1
     8    17    18    1
     9    18    19    1
    10    19    20    1
    11    20    21    1
    12    21    22    1
    13    22    23    1
    14    23    24    1
    15     5     6   ar
    16     6     7   ar
    17     7     8    1
    18     8     9   ar
    19     9    10   ar
    20    10    11   ar
    21    11    12    1
    22    11    13   ar
    23    13    14   ar
    24     7     2   ar
    25    14     8   ar
    26    24    19    1
@<TRIPOS>MOLECULE
*****
 24 26 0 0 0
SMALL
GASTEIGER

@<TRIPOS>ATOM
      1 O         144.1645  143.7243  164.8527 O.2     1  UNL1       -0.2651
      2 C         142.7523  143.7524  164.3476 C.ar    1  UNL1        0.2807
      3 C         142.1982  145.0065  163.7392 C.ar    1  UNL1        0.0674
      4 C         140.7861  145.0346  163.2342 C.ar    1  UNL1        0.0641
      5 C         139.9280  143.8086  163.3376 C.ar    1  UNL1        0.2424
      6 N         140.4821  142.5546  163.9461 N.ar    1  UNL1       -0.1248
      7 N         141.8943  142.5265  164.4511 N.ar    1  UNL1       -0.1916
      8 C         142.4484  141.2723  165.0596 C.ar    1  UNL1        0.0861
      9 C         142.1527  140.9397  166.4920 C.ar    1  UNL1        0.0201
     10 C         142.7067  139.6856  167.1005 C.ar    1  UNL1        0.0129
     11 C         143.5565  138.7641  166.2765 C.ar    1  UNL1        0.0578
     12 CL        144.1105  137.5100  166.8850 Cl      1  UNL1       -0.0822
     13 C         143.8521  139.0967  164.8441 C.ar    1  UNL1        0.0129
     14 C         143.2980  140.3509  164.2356 C.ar    1  UNL1        0.0201
     15 O         138.5159  143.8368  162.8326 O.3     1  UNL1       -0.4592
     16 C         137.6973  142.5799  162.8239 C.3     1  UNL1        0.2086
     17 C         138.0142  141.4851  161.8487 C.3     1  UNL1        0.0647
     18 C         137.6591  140.0646  162.1745 C.3     1  UNL1        0.0759
     19 N         138.5978  139.2248  162.9892 N.3     1  UNL1       -0.2726
     20 C         139.4967  138.2331  162.3121 C.3     1  UNL1        0.0721
     21 C         140.4354  137.3933  163.1268 C.3     1  UNL1        0.0174
     22 C         140.4752  137.5453  164.6185 C.3     1  UNL1        0.0029
     23 C         139.5763  138.5371  165.2957 C.3     1  UNL1        0.0174
     24 C         138.6376  139.3769  164.4810 C.3     1  UNL1        0.0721
@<TRIPOS>BOND
     1     1     2    2
     2     2     3   ar
     3     3     4   ar
     4     4     5   ar
     5     5    15    1
     6    15    16    1
     7    16    17    1
     8    17    18    1
     9    18    19    1
    10    19    20    1
    11    20    21    1
    12    21    22    1
    13    22    23    1
    14    23    24    1
    15     5     6   ar
    16     6     7   ar
    17     7     8    1
    18     8     9   ar
    19     9    10   ar
    20    10    11   ar
    21    11    12    1
    22    11    13   ar
    23    13    14   ar
    24     7     2   ar
    25    14     8   ar
    26    24    19    1
