@<TRIPOS>MOLECULE
*****
 32 35 0 0 0
SMALL
GASTEIGER

@<TRIPOS>ATOM
      1 N         144.9332  141.8820  162.6111 N.3     1  UNL1       -0.2863
      2 H         145.3682  142.8040  162.5798 H       1  UNL1        0.1240
      3 C         144.2767  141.7583  163.9541 C.3     1  UNL1        0.1341
      4 C         143.7490  142.8900  164.7852 C.3     1  UNL1        0.0471
      5 C         143.1788  142.3122  166.0466 C.3     1  UNL1        0.1031
      6 N         143.3541  140.8234  165.9950 N.am    1  UNL1       -0.2252
      7 C         142.9261  139.8482  167.0513 C.2     1  UNL1        0.2563
      8 O         143.1691  138.3804  166.8597 O.2     1  UNL1       -0.2694
      9 C         144.0327  140.4810  164.7019 C.2     1  UNL1        0.2459
     10 O         144.4023  139.1033  164.2379 O.2     1  UNL1       -0.2730
     11 C         142.2550  140.3407  168.2992 C.ar    1  UNL1        0.0736
     12 C         143.0470  141.0850  169.3328 C.ar    1  UNL1        0.1034
     13 N         142.3760  141.5775  170.5807 N.ar    1  UNL1       -0.2417
     14 C         140.9129  141.3257  170.7949 C.ar    1  UNL1        0.1055
     15 C         140.1208  140.5813  169.7611 C.ar    1  UNL1        0.0539
     16 BR        138.6577  140.3294  169.9753 Br      1  UNL1       -0.0474
     17 C         140.7918  140.0888  168.5133 C.ar    1  UNL1        0.0143
     18 C         144.1152  141.7465  161.3610 C.3     1  UNL1        0.1151
     19 N         142.0180  140.1013  161.5612 N.ar    1  UNL1       -0.3070
     20 C         141.6887  138.7343  161.0390 C.ar    1  UNL1        0.1786
     21 N         142.8566  138.2534  160.2297 N.ar    1  UNL1       -0.2226
     22 C         143.9078  139.3233  160.2519 C.ar    1  UNL1        0.1147
     23 C         143.3895  140.4653  161.0748 C.ar    1  UNL1        0.0739
     24 C         141.1316  140.9545  162.4193 C.3     1  UNL1        0.1340
     25 C         138.6009  139.0602  165.6220 C.ar    1  UNL1        0.0684
     26 C         139.9044  138.4320  165.2266 C.ar    1  UNL1        0.0100
     27 C         140.7479  139.0635  164.1590 C.ar    1  UNL1       -0.0017
     28 C         140.2880  140.3231  163.4868 C.ar    1  UNL1        0.0005
     29 C         138.9846  140.9512  163.8823 C.ar    1  UNL1       -0.0017
     30 C         138.1411  140.3198  164.9498 C.ar    1  UNL1        0.0100
     31 N         136.9139  137.7973  167.7571 N.1     1  UNL1       -0.1908
     32 C         137.7574  138.4288  166.6896 C.1     1  UNL1        0.1004
@<TRIPOS>BOND
     1    31    32    3
     2    32    25    1
     3    25    26   ar
     4    26    27   ar
     5    27    28   ar
     6    28    24    1
     7    24    19    1
     8    19    20   ar
     9    20    21   ar
    10    21    22   ar
    11    22    23   ar
    12    23    18    1
    13    18     1    1
    14     3     1    1
    15     3     4    1
    16     4     5    1
    17     5     6    1
    18     6     7   am
    19     7     8    2
    20     7    11    1
    21    11    12   ar
    22    12    13   ar
    23    13    14   ar
    24    14    15   ar
    25    15    16    1
    26    15    17   ar
    27     6     9   am
    28     9    10    2
    29    28    29   ar
    30    29    30   ar
    31    30    25   ar
    32    23    19   ar
    33     9     3    1
    34    17    11   ar
    35     1     2    1
@<TRIPOS>MOLECULE
*****
 32 35 0 0 0
SMALL
GASTEIGER

@<TRIPOS>ATOM
      1 N         136.9893  140.6257  161.9561 N.3     1  UNL1       -0.2863
      2 H         136.1833  140.1244  162.3295 H       1  UNL1        0.1240
      3 C         137.8801  140.9420  163.1207 C.3     1  UNL1        0.1341
      4 C         138.0950  140.0767  164.3269 C.3     1  UNL1        0.0471
      5 C         139.0602  140.7791  165.2353 C.3     1  UNL1        0.1031
      6 N         139.4418  142.0785  164.5904 N.am    1  UNL1       -0.2252
      7 C         140.3869  143.0981  165.1535 C.2     1  UNL1        0.2563
      8 O         140.6733  144.3574  164.3904 O.2     1  UNL1       -0.2694
      9 C         138.7125  142.1792  163.2835 C.2     1  UNL1        0.2459
     10 O         138.8002  143.3172  162.3103 O.2     1  UNL1       -0.2730
     11 C         141.0455  142.8586  166.4798 C.ar    1  UNL1        0.0736
     12 C         142.4871  142.4486  166.5380 C.ar    1  UNL1        0.1034
     13 N         143.1458  142.2090  167.8642 N.ar    1  UNL1       -0.2417
     14 C         142.3627  142.3795  169.1321 C.ar    1  UNL1        0.1055
     15 C         140.9210  142.7896  169.0739 C.ar    1  UNL1        0.0539
     16 BR        140.1380  142.9601  170.3418 Br      1  UNL1       -0.0474
     17 C         140.2624  143.0291  167.7477 C.ar    1  UNL1        0.0143
     18 C         137.5131  139.8113  160.8105 C.3     1  UNL1        0.1151
     19 N         140.0724  139.5807  160.0745 N.ar    1  UNL1       -0.3070
     20 C         140.9994  140.3701  159.1983 C.ar    1  UNL1        0.1786
     21 N         140.2357  141.5388  158.6497 N.ar    1  UNL1       -0.2226
     22 C         138.8367  141.4717  159.1869 C.ar    1  UNL1        0.1147
     23 C         138.7358  140.2616  160.0674 C.ar    1  UNL1        0.0739
     24 C         140.4209  138.3301  160.8258 C.3     1  UNL1        0.1340
     25 C         142.1257  138.6029  164.9814 C.ar    1  UNL1        0.0684
     26 C         142.3348  139.7263  164.0097 C.ar    1  UNL1        0.0100
     27 C         141.7666  139.6353  162.6245 C.ar    1  UNL1       -0.0017
     28 C         140.9891  138.4210  162.2110 C.ar    1  UNL1        0.0005
     29 C         140.7800  137.2977  163.1827 C.ar    1  UNL1       -0.0017
     30 C         141.3482  137.3886  164.5679 C.ar    1  UNL1        0.0100
     31 N         143.2622  138.7848  167.7518 N.1     1  UNL1       -0.1908
     32 C         142.6939  138.6939  166.3666 C.1     1  UNL1        0.1004
@<TRIPOS>BOND
     1    31    32    3
     2    32    25    1
     3    25    26   ar
     4    26    27   ar
     5    27    28   ar
     6    28    24    1
     7    24    19    1
     8    19    20   ar
     9    20    21   ar
    10    21    22   ar
    11    22    23   ar
    12    23    18    1
    13    18     1    1
    14     3     1    1
    15     3     4    1
    16     4     5    1
    17     5     6    1
    18     6     7   am
    19     7     8    2
    20     7    11    1
    21    11    12   ar
    22    12    13   ar
    23    13    14   ar
    24    14    15   ar
    25    15    16    1
    26    15    17   ar
    27     6     9   am
    28     9    10    2
    29    28    29   ar
    30    29    30   ar
    31    30    25   ar
    32    23    19   ar
    33     9     3    1
    34    17    11   ar
    35     1     2    1
@<TRIPOS>MOLECULE
*****
 32 35 0 0 0
SMALL
GASTEIGER

@<TRIPOS>ATOM
      1 N         143.7423  138.3840  162.7179 N.3     1  UNL1       -0.2863
      2 H         144.7186  138.1034  162.8095 H       1  UNL1        0.1240
      3 C         143.3275  138.9478  164.0446 C.3     1  UNL1        0.1341
      4 C         142.6614  138.1907  165.1549 C.3     1  UNL1        0.0471
      5 C         142.4282  139.1427  166.2904 C.3     1  UNL1        0.1031
      6 N         142.9503  140.4882  165.8817 N.am    1  UNL1       -0.2252
      7 C         142.9216  141.7352  166.7149 C.2     1  UNL1        0.2563
      8 O         143.4842  143.0145  166.1698 O.2     1  UNL1       -0.2694
      9 C         143.5061  140.3678  164.4938 C.2     1  UNL1        0.2459
     10 O         144.1308  141.4732  163.6952 O.2     1  UNL1       -0.2730
     11 C         142.3303  141.7030  168.0931 C.ar    1  UNL1        0.0736
     12 C         143.1115  142.2370  169.2569 C.ar    1  UNL1        0.1034
     13 N         142.5203  142.2048  170.6351 N.ar    1  UNL1       -0.2417
     14 C         141.1479  141.6387  170.8494 C.ar    1  UNL1        0.1055
     15 C         140.3667  141.1047  169.6855 C.ar    1  UNL1        0.0539
     16 BR        138.9943  140.5386  169.8999 Br      1  UNL1       -0.0474
     17 C         140.9579  141.1369  168.3073 C.ar    1  UNL1        0.0143
     18 C         143.6486  139.2285  161.4816 C.3     1  UNL1        0.1151
     19 N         141.1205  139.7741  160.8062 N.ar    1  UNL1       -0.3070
     20 C         140.2203  139.3913  159.6691 C.ar    1  UNL1        0.1786
     21 N         140.9940  138.4971  158.7460 N.ar    1  UNL1       -0.2226
     22 C         142.3724  138.3273  159.3127 C.ar    1  UNL1        0.1147
     23 C         142.4507  139.1165  160.5859 C.ar    1  UNL1        0.0739
     24 C         140.7549  140.6591  161.9608 C.3     1  UNL1        0.1340
     25 C         138.4952  138.9672  165.4652 C.ar    1  UNL1        0.0684
     26 C         138.8675  140.4201  165.4436 C.ar    1  UNL1        0.0100
     27 C         139.6207  140.9840  164.2754 C.ar    1  UNL1       -0.0017
     28 C         140.0017  140.0951  163.1289 C.ar    1  UNL1        0.0005
     29 C         139.6295  138.6422  163.1505 C.ar    1  UNL1       -0.0017
     30 C         138.8762  138.0783  164.3187 C.ar    1  UNL1        0.0100
     31 N         136.9888  137.8392  167.8015 N.1     1  UNL1       -0.1908
     32 C         137.7420  138.4032  166.6334 C.1     1  UNL1        0.1004
@<TRIPOS>BOND
     1    31    32    3
     2    32    25    1
     3    25    26   ar
     4    26    27   ar
     5    27    28   ar
     6    28    24    1
     7    24    19    1
     8    19    20   ar
     9    20    21   ar
    10    21    22   ar
    11    22    23   ar
    12    23    18    1
    13    18     1    1
    14     3     1    1
    15     3     4    1
    16     4     5    1
    17     5     6    1
    18     6     7   am
    19     7     8    2
    20     7    11    1
    21    11    12   ar
    22    12    13   ar
    23    13    14   ar
    24    14    15   ar
    25    15    16    1
    26    15    17   ar
    27     6     9   am
    28     9    10    2
    29    28    29   ar
    30    29    30   ar
    31    30    25   ar
    32    23    19   ar
    33     9     3    1
    34    17    11   ar
    35     1     2    1
@<TRIPOS>MOLECULE
*****
 32 35 0 0 0
SMALL
GASTEIGER

@<TRIPOS>ATOM
      1 N         144.9340  142.1103  162.4619 N.3     1  UNL1       -0.2863
      2 H         145.2231  143.0853  162.3836 H       1  UNL1        0.1240
      3 C         144.2961  141.9548  163.8106 C.3     1  UNL1        0.1341
      4 C         143.7941  143.0676  164.6821 C.3     1  UNL1        0.0471
      5 C         143.2359  142.4597  165.9346 C.3     1  UNL1        0.1031
      6 N         143.3929  140.9711  165.8371 N.am    1  UNL1       -0.2252
      7 C         142.9691  139.9703  166.8709 C.2     1  UNL1        0.2563
      8 O         143.1919  138.5061  166.6331 O.2     1  UNL1       -0.2694
      9 C         144.0481  140.6591  164.5244 C.2     1  UNL1        0.2459
     10 O         144.3945  139.2914  164.0150 O.2     1  UNL1       -0.2730
     11 C         142.3224  140.4337  168.1427 C.ar    1  UNL1        0.0736
     12 C         143.1246  141.1904  169.1594 C.ar    1  UNL1        0.1034
     13 N         142.4780  141.6538  170.4311 N.ar    1  UNL1       -0.2417
     14 C         141.0293  141.3604  170.6861 C.ar    1  UNL1        0.1055
     15 C         140.2271  140.6036  169.6693 C.ar    1  UNL1        0.0539
     16 BR        138.7784  140.3102  169.9242 Br      1  UNL1       -0.0474
     17 C         140.8737  140.1402  168.3976 C.ar    1  UNL1        0.0143
     18 C         144.1539  141.7891  161.2216 C.3     1  UNL1        0.1151
     19 N         141.5207  141.3831  161.4370 N.ar    1  UNL1       -0.3070
     20 C         140.2953  142.2067  161.1721 C.ar    1  UNL1        0.1786
     21 N         140.7388  143.5510  160.6757 N.ar    1  UNL1       -0.2226
     22 C         142.2382  143.5582  160.6338 C.ar    1  UNL1        0.1147
     23 C         142.7214  142.2184  161.1043 C.ar    1  UNL1        0.0739
     24 C         141.5416  139.9720  161.9453 C.3     1  UNL1        0.1340
     25 C         138.8271  138.7563  165.3222 C.ar    1  UNL1        0.0684
     26 C         139.4345  140.1277  165.3047 C.ar    1  UNL1        0.0100
     27 C         140.3394  140.5329  164.1791 C.ar    1  UNL1       -0.0017
     28 C         140.6368  139.5668  163.0709 C.ar    1  UNL1        0.0005
     29 C         140.0294  138.1954  163.0884 C.ar    1  UNL1       -0.0017
     30 C         139.1245  137.7902  164.2140 C.ar    1  UNL1        0.0100
     31 N         137.0175  137.9459  167.5735 N.1     1  UNL1       -0.1908
     32 C         137.9223  138.3511  166.4479 C.1     1  UNL1        0.1004
@<TRIPOS>BOND
     1    31    32    3
     2    32    25    1
     3    25    26   ar
     4    26    27   ar
     5    27    28   ar
     6    28    24    1
     7    24    19    1
     8    19    20   ar
     9    20    21   ar
    10    21    22   ar
    11    22    23   ar
    12    23    18    1
    13    18     1    1
    14     3     1    1
    15     3     4    1
    16     4     5    1
    17     5     6    1
    18     6     7   am
    19     7     8    2
    20     7    11    1
    21    11    12   ar
    22    12    13   ar
    23    13    14   ar
    24    14    15   ar
    25    15    16    1
    26    15    17   ar
    27     6     9   am
    28     9    10    2
    29    28    29   ar
    30    29    30   ar
    31    30    25   ar
    32    23    19   ar
    33     9     3    1
    34    17    11   ar
    35     1     2    1
@<TRIPOS>MOLECULE
*****
 32 35 0 0 0
SMALL
GASTEIGER

@<TRIPOS>ATOM
      1 N         141.4909  137.1840  162.5021 N.3     1  UNL1       -0.2863
      2 H         142.3130  136.5864  162.5880 H       1  UNL1        0.1240
      3 C         141.3305  137.8909  163.8154 C.3     1  UNL1        0.1341
      4 C         142.4400  138.2963  164.7398 C.3     1  UNL1        0.0471
      5 C         141.8275  138.9724  165.9305 C.3     1  UNL1        0.1031
      6 N         140.3395  138.9847  165.7420 N.am    1  UNL1       -0.2252
      7 C         139.3351  139.5639  166.6936 C.2     1  UNL1        0.2563
      8 O         137.8719  139.5023  166.3689 O.2     1  UNL1       -0.2694
      9 C         140.0323  138.3164  164.4348 C.2     1  UNL1        0.2459
     10 O         138.6666  138.1098  163.8497 O.2     1  UNL1       -0.2730
     11 C         139.7937  140.2046  167.9701 C.ar    1  UNL1        0.0736
     12 C         139.0048  140.0126  169.2312 C.ar    1  UNL1        0.1034
     13 N         139.4634  140.6532  170.5077 N.ar    1  UNL1       -0.2417
     14 C         140.7109  141.4859  170.5228 C.ar    1  UNL1        0.1055
     15 C         141.4999  141.6779  169.2616 C.ar    1  UNL1        0.0539
     16 BR        142.7475  142.5105  169.2768 Br      1  UNL1       -0.0474
     17 C         141.0413  141.0372  167.9852 C.ar    1  UNL1        0.0143
     18 C         141.6614  137.9762  161.2398 C.3     1  UNL1        0.1151
     19 N         142.0311  140.6234  161.2101 N.ar    1  UNL1       -0.3070
     20 C         143.2281  141.5273  161.2158 C.ar    1  UNL1        0.1786
     21 N         144.4575  140.6683  161.2455 N.ar    1  UNL1       -0.2226
     22 C         144.0202  139.2334  161.2581 C.ar    1  UNL1        0.1147
     23 C         142.5206  139.2057  161.2362 C.ar    1  UNL1        0.0739
     24 C         140.5964  141.0604  161.1830 C.3     1  UNL1        0.1340
     25 C         139.0291  143.8352  164.3602 C.ar    1  UNL1        0.0684
     26 C         140.0512  142.7948  164.7107 C.ar    1  UNL1        0.0100
     27 C         140.5737  141.8699  163.6516 C.ar    1  UNL1       -0.0017
     28 C         140.0740  141.9853  162.2421 C.ar    1  UNL1        0.0005
     29 C         139.0518  143.0256  161.8915 C.ar    1  UNL1       -0.0017
     30 C         138.5294  143.9506  162.9506 C.ar    1  UNL1        0.0100
     31 N         137.9842  145.6850  166.4782 N.1     1  UNL1       -0.1908
     32 C         138.5067  144.7601  165.4192 C.1     1  UNL1        0.1004
@<TRIPOS>BOND
     1    31    32    3
     2    32    25    1
     3    25    26   ar
     4    26    27   ar
     5    27    28   ar
     6    28    24    1
     7    24    19    1
     8    19    20   ar
     9    20    21   ar
    10    21    22   ar
    11    22    23   ar
    12    23    18    1
    13    18     1    1
    14     3     1    1
    15     3     4    1
    16     4     5    1
    17     5     6    1
    18     6     7   am
    19     7     8    2
    20     7    11    1
    21    11    12   ar
    22    12    13   ar
    23    13    14   ar
    24    14    15   ar
    25    15    16    1
    26    15    17   ar
    27     6     9   am
    28     9    10    2
    29    28    29   ar
    30    29    30   ar
    31    30    25   ar
    32    23    19   ar
    33     9     3    1
    34    17    11   ar
    35     1     2    1
@<TRIPOS>MOLECULE
*****
 32 35 0 0 0
SMALL
GASTEIGER

@<TRIPOS>ATOM
      1 N         143.5052  142.8636  161.5019 N.3     1  UNL1       -0.2863
      2 H         142.8133  143.3854  160.9639 H       1  UNL1        0.1240
      3 C         142.8820  142.5632  162.8328 C.3     1  UNL1        0.1341
      4 C         143.5482  142.7011  164.1697 C.3     1  UNL1        0.0471
      5 C         142.5610  142.2952  165.2236 C.3     1  UNL1        0.1031
      6 N         141.2847  141.9065  164.5381 N.am    1  UNL1       -0.2252
      7 C         140.0303  141.4349  165.2119 C.2     1  UNL1        0.2563
      8 O         138.8261  141.0796  164.3911 O.2     1  UNL1       -0.2694
      9 C         141.4831  142.0721  163.0606 C.2     1  UNL1        0.2459
     10 O         140.4618  141.7952  161.9974 O.2     1  UNL1       -0.2730
     11 C         139.9801  141.3185  166.7066 C.ar    1  UNL1        0.0736
     12 C         139.6043  140.0143  167.3450 C.ar    1  UNL1        0.1034
     13 N         139.5540  139.8979  168.8397 N.ar    1  UNL1       -0.2417
     14 C         139.8795  141.0857  169.6958 C.ar    1  UNL1        0.1055
     15 C         140.2554  142.3900  169.0573 C.ar    1  UNL1        0.0539
     16 BR        140.5809  143.5779  169.9135 Br      1  UNL1       -0.0474
     17 C         140.3056  142.5064  167.5627 C.ar    1  UNL1        0.0143
     18 C         143.9796  141.7425  160.6256 C.3     1  UNL1        0.1151
     19 N         142.8725  139.3482  160.1932 N.ar    1  UNL1       -0.3070
     20 C         141.7468  138.8381  159.3432 C.ar    1  UNL1        0.1786
     21 N         141.1639  140.0024  158.5984 N.ar    1  UNL1       -0.2226
     22 C         141.9294  141.2321  158.9881 C.ar    1  UNL1        0.1147
     23 C         142.9853  140.8278  159.9738 C.ar    1  UNL1        0.0739
     24 C         143.7341  138.5236  161.1029 C.3     1  UNL1        0.1340
     25 C         143.2391  138.8359  165.5647 C.ar    1  UNL1        0.0684
     26 C         142.1191  138.3027  164.7214 C.ar    1  UNL1        0.0100
     27 C         142.2841  138.1986  163.2341 C.ar    1  UNL1       -0.0017
     28 C         143.5691  138.6277  162.5902 C.ar    1  UNL1        0.0005
     29 C         144.6891  139.1608  163.4336 C.ar    1  UNL1       -0.0017
     30 C         144.5241  139.2649  164.9208 C.ar    1  UNL1        0.0100
     31 N         142.9092  139.0441  168.5392 N.1     1  UNL1       -0.1908
     32 C         143.0741  138.9400  167.0520 C.1     1  UNL1        0.1004
@<TRIPOS>BOND
     1    31    32    3
     2    32    25    1
     3    25    26   ar
     4    26    27   ar
     5    27    28   ar
     6    28    24    1
     7    24    19    1
     8    19    20   ar
     9    20    21   ar
    10    21    22   ar
    11    22    23   ar
    12    23    18    1
    13    18     1    1
    14     3     1    1
    15     3     4    1
    16     4     5    1
    17     5     6    1
    18     6     7   am
    19     7     8    2
    20     7    11    1
    21    11    12   ar
    22    12    13   ar
    23    13    14   ar
    24    14    15   ar
    25    15    16    1
    26    15    17   ar
    27     6     9   am
    28     9    10    2
    29    28    29   ar
    30    29    30   ar
    31    30    25   ar
    32    23    19   ar
    33     9     3    1
    34    17    11   ar
    35     1     2    1
@<TRIPOS>MOLECULE
*****
 32 35 0 0 0
SMALL
GASTEIGER

@<TRIPOS>ATOM
      1 N         137.1163  141.0656  163.1209 N.3     1  UNL1       -0.2863
      2 H         136.5772  141.7633  163.6337 H       1  UNL1        0.1240
      3 C         137.9285  141.8089  162.1022 C.3     1  UNL1        0.1341
      4 C         138.1991  141.3644  160.6954 C.3     1  UNL1        0.0471
      5 C         139.0505  142.4081  160.0352 C.3     1  UNL1        0.1031
      6 N         139.3060  143.4976  161.0340 N.am    1  UNL1       -0.2252
      7 C         140.1133  144.7394  160.7969 C.2     1  UNL1        0.2563
      8 O         140.2826  145.7453  161.8967 O.2     1  UNL1       -0.2694
      9 C         138.6126  143.1273  162.3114 C.2     1  UNL1        0.2459
     10 O         138.6047  143.9338  163.5762 O.2     1  UNL1       -0.2730
     11 C         140.7514  144.9754  159.4599 C.ar    1  UNL1        0.0736
     12 C         142.1288  144.4503  159.1832 C.ar    1  UNL1        0.1034
     13 N         142.7669  144.6862  157.8464 N.ar    1  UNL1       -0.2417
     14 C         142.0274  145.4473  156.7862 C.ar    1  UNL1        0.1055
     15 C         140.6498  145.9724  157.0630 C.ar    1  UNL1        0.0539
     16 BR        139.9103  146.7335  156.0029 Br      1  UNL1       -0.0474
     17 C         140.0118  145.7365  158.3998 C.ar    1  UNL1        0.0143
     18 C         137.7998  140.2082  164.1446 C.3     1  UNL1        0.1151
     19 N         140.3898  139.5988  163.8895 N.ar    1  UNL1       -0.3070
     20 C         141.1556  138.4269  163.3506 C.ar    1  UNL1        0.1786
     21 N         140.1656  137.4103  162.8641 N.ar    1  UNL1       -0.2226
     22 C         138.7880  137.9539  163.1024 C.ar    1  UNL1        0.1147
     23 C         138.9265  139.3064  163.7361 C.ar    1  UNL1        0.0739
     24 C         140.9831  140.8442  164.4784 C.3     1  UNL1        0.1340
     25 C         140.7021  141.5941  168.9066 C.ar    1  UNL1        0.0684
     26 C         140.9815  140.2115  168.3963 C.ar    1  UNL1        0.0100
     27 C         141.0751  139.9616  166.9202 C.ar    1  UNL1       -0.0017
     28 C         140.8894  141.0942  165.9545 C.ar    1  UNL1        0.0005
     29 C         140.6101  142.4767  166.4648 C.ar    1  UNL1       -0.0017
     30 C         140.5164  142.7267  167.9409 C.ar    1  UNL1        0.0100
     31 N         140.5148  142.0940  171.8587 N.1     1  UNL1       -0.1908
     32 C         140.6085  141.8440  170.3827 C.1     1  UNL1        0.1004
@<TRIPOS>BOND
     1    31    32    3
     2    32    25    1
     3    25    26   ar
     4    26    27   ar
     5    27    28   ar
     6    28    24    1
     7    24    19    1
     8    19    20   ar
     9    20    21   ar
    10    21    22   ar
    11    22    23   ar
    12    23    18    1
    13    18     1    1
    14     3     1    1
    15     3     4    1
    16     4     5    1
    17     5     6    1
    18     6     7   am
    19     7     8    2
    20     7    11    1
    21    11    12   ar
    22    12    13   ar
    23    13    14   ar
    24    14    15   ar
    25    15    16    1
    26    15    17   ar
    27     6     9   am
    28     9    10    2
    29    28    29   ar
    30    29    30   ar
    31    30    25   ar
    32    23    19   ar
    33     9     3    1
    34    17    11   ar
    35     1     2    1
@<TRIPOS>MOLECULE
*****
 32 35 0 0 0
SMALL
GASTEIGER

@<TRIPOS>ATOM
      1 N         140.5616  144.3639  162.0895 N.3     1  UNL1       -0.2863
      2 H         139.5974  144.6038  161.8587 H       1  UNL1        0.1240
      3 C         140.5690  143.9357  163.5270 C.3     1  UNL1        0.1341
      4 C         139.4947  144.2153  164.5358 C.3     1  UNL1        0.0471
      5 C         139.9137  143.6050  165.8404 C.3     1  UNL1        0.1031
      6 N         141.2470  142.9482  165.6378 N.am    1  UNL1       -0.2252
      7 C         142.0366  142.2157  166.6818 C.2     1  UNL1        0.2563
      8 O         143.3618  141.6072  166.3301 O.2     1  UNL1       -0.2694
      9 C         141.6519  143.1526  164.2081 C.2     1  UNL1        0.2459
     10 O         142.9177  142.6602  163.5712 O.2     1  UNL1       -0.2730
     11 C         141.5011  142.0915  168.0775 C.ar    1  UNL1        0.0736
     12 C         142.1511  142.8449  169.1999 C.ar    1  UNL1        0.1034
     13 N         141.6156  142.7208  170.5955 N.ar    1  UNL1       -0.2417
     14 C         140.4301  141.8433  170.8687 C.ar    1  UNL1        0.1055
     15 C         139.7801  141.0900  169.7462 C.ar    1  UNL1        0.0539
     16 BR        138.5946  140.2125  170.0194 Br      1  UNL1       -0.0474
     17 C         140.3156  141.2140  168.3506 C.ar    1  UNL1        0.0143
     18 C         141.0406  143.4230  161.0240 C.3     1  UNL1        0.1151
     19 N         139.9343  140.9910  160.9412 N.ar    1  UNL1       -0.3070
     20 C         138.9007  140.3247  160.0824 C.ar    1  UNL1        0.1786
     21 N         138.4331  141.3206  159.0627 N.ar    1  UNL1       -0.2226
     22 C         139.1779  142.6025  159.2914 C.ar    1  UNL1        0.1147
     23 C         140.1056  142.3988  160.4523 C.ar    1  UNL1        0.0739
     24 C         140.6679  140.3604  162.0876 C.3     1  UNL1        0.1340
     25 C         138.3808  138.7834  165.6276 C.ar    1  UNL1        0.0684
     26 C         138.0964  140.1598  165.1037 C.ar    1  UNL1        0.0100
     27 C         138.8587  140.6855  163.9236 C.ar    1  UNL1       -0.0017
     28 C         139.9055  139.8347  163.2676 C.ar    1  UNL1        0.0005
     29 C         140.1899  138.4583  163.7915 C.ar    1  UNL1       -0.0017
     30 C         139.4276  137.9327  164.9716 C.ar    1  UNL1        0.0100
     31 N         136.8560  137.7321  167.9877 N.1     1  UNL1       -0.1908
     32 C         137.6184  138.2577  166.8077 C.1     1  UNL1        0.1004
@<TRIPOS>BOND
     1    31    32    3
     2    32    25    1
     3    25    26   ar
     4    26    27   ar
     5    27    28   ar
     6    28    24    1
     7    24    19    1
     8    19    20   ar
     9    20    21   ar
    10    21    22   ar
    11    22    23   ar
    12    23    18    1
    13    18     1    1
    14     3     1    1
    15     3     4    1
    16     4     5    1
    17     5     6    1
    18     6     7   am
    19     7     8    2
    20     7    11    1
    21    11    12   ar
    22    12    13   ar
    23    13    14   ar
    24    14    15   ar
    25    15    16    1
    26    15    17   ar
    27     6     9   am
    28     9    10    2
    29    28    29   ar
    30    29    30   ar
    31    30    25   ar
    32    23    19   ar
    33     9     3    1
    34    17    11   ar
    35     1     2    1
@<TRIPOS>MOLECULE
*****
 32 35 0 0 0
SMALL
GASTEIGER

@<TRIPOS>ATOM
      1 N         138.9496  139.4870  167.8280 N.3     1  UNL1       -0.2863
      2 H         138.0901  139.9934  168.0406 H       1  UNL1        0.1240
      3 C         139.2252  139.6955  166.3683 C.3     1  UNL1        0.1341
      4 C         138.2551  140.2265  165.3549 C.3     1  UNL1        0.0471
      5 C         138.9497  140.2688  164.0261 C.3     1  UNL1        0.1031
      6 N         140.3490  139.7640  164.2183 N.am    1  UNL1       -0.2252
      7 C         141.3945  139.6360  163.1504 C.2     1  UNL1        0.2563
      8 O         142.7574  139.1121  163.4941 O.2     1  UNL1       -0.2694
      9 C         140.5193  139.4097  165.6659 C.2     1  UNL1        0.2459
     10 O         141.7650  138.8652  166.2997 O.2     1  UNL1       -0.2730
     11 C         141.0772  140.0318  161.7387 C.ar    1  UNL1        0.0736
     12 C         140.6795  138.9873  160.7384 C.ar    1  UNL1        0.1034
     13 N         140.3622  139.3830  159.3268 N.ar    1  UNL1       -0.2417
     14 C         140.4425  140.8233  158.9156 C.ar    1  UNL1        0.1055
     15 C         140.8401  141.8679  159.9160 C.ar    1  UNL1        0.0539
     16 BR        140.9204  143.3081  159.5048 Br      1  UNL1       -0.0474
     17 C         141.1575  141.4721  161.3276 C.ar    1  UNL1        0.0143
     18 C         139.9638  139.9070  168.8503 C.3     1  UNL1        0.1151
     19 N         140.7385  142.4448  168.5273 N.ar    1  UNL1       -0.3070
     20 C         140.5760  143.7117  169.3137 C.ar    1  UNL1        0.1786
     21 N         139.7863  143.3927  170.5486 N.ar    1  UNL1       -0.2226
     22 C         139.4608  141.9285  170.5252 C.ar    1  UNL1        0.1147
     23 C         140.0493  141.3427  169.2761 C.ar    1  UNL1        0.0739
     24 C         141.4631  142.3045  167.2214 C.3     1  UNL1        0.1340
     25 C         140.1520  144.7097  163.6512 C.ar    1  UNL1        0.0684
     26 C         141.5499  144.1701  163.7197 C.ar    1  UNL1        0.0100
     27 C         141.9869  143.3684  164.9098 C.ar    1  UNL1       -0.0017
     28 C         141.0261  143.1062  166.0313 C.ar    1  UNL1        0.0005
     29 C         139.6282  143.6458  165.9628 C.ar    1  UNL1       -0.0017
     30 C         139.1912  144.4475  164.7727 C.ar    1  UNL1        0.0100
     31 N         139.2780  146.3131  161.2710 N.1     1  UNL1       -0.1908
     32 C         139.7150  145.5114  162.4611 C.1     1  UNL1        0.1004
@<TRIPOS>BOND
     1    31    32    3
     2    32    25    1
     3    25    26   ar
     4    26    27   ar
     5    27    28   ar
     6    28    24    1
     7    24    19    1
     8    19    20   ar
     9    20    21   ar
    10    21    22   ar
    11    22    23   ar
    12    23    18    1
    13    18     1    1
    14     3     1    1
    15     3     4    1
    16     4     5    1
    17     5     6    1
    18     6     7   am
    19     7     8    2
    20     7    11    1
    21    11    12   ar
    22    12    13   ar
    23    13    14   ar
    24    14    15   ar
    25    15    16    1
    26    15    17   ar
    27     6     9   am
    28     9    10    2
    29    28    29   ar
    30    29    30   ar
    31    30    25   ar
    32    23    19   ar
    33     9     3    1
    34    17    11   ar
    35     1     2    1
