@<TRIPOS>MOLECULE
*****
 26 29 0 0 0
SMALL
GASTEIGER

@<TRIPOS>ATOM
      1 C         142.4087  138.0023  159.9291 C.3     1  UNL1        0.1366
      2 N         141.4126  138.6832  160.8203 N.ar    1  UNL1       -0.2630
      3 C         140.1334  139.3309  160.3796 C.ar    1  UNL1        0.3331
      4 O         139.6257  139.4113  158.9704 O.2     1  UNL1       -0.2462
      5 N         139.4511  139.8839  161.5955 N.ar    1  UNL1       -0.2694
      6 C         140.3086  139.5781  162.7877 C.ar    1  UNL1        0.0986
      7 C         140.1421  139.8795  164.2476 C.ar    1  UNL1        0.0224
      8 C         141.1879  139.4387  165.2284 C.ar    1  UNL1        0.0267
      9 C         142.4002  138.6967  164.7492 C.ar    1  UNL1        0.1011
     10 N         142.5667  138.3953  163.2893 N.ar    1  UNL1       -0.2251
     11 C         141.5209  138.8360  162.3085 C.ar    1  UNL1        0.1633
     12 C         141.0215  139.7401  166.6884 C.ar    1  UNL1        0.0309
     13 C         139.7577  140.1946  167.3564 C.ar    1  UNL1        0.0082
     14 C         140.0448  140.3753  168.8175 C.ar    1  UNL1        0.0505
     15 C         141.4861  140.0324  169.0526 C.ar    1  UNL1        0.0366
     16 S         142.0897  139.6399  167.7367 S.2     1  UNL1       -0.0865
     17 C         139.0630  140.8206  169.8605 C.3     1  UNL1        0.3415
     18 F         139.1779  142.1895  170.4629 F       1  UNL1       -0.1932
     19 F         137.9662  139.8970  170.3010 F       1  UNL1       -0.1932
     20 C         138.1412  140.6146  161.6158 C.3     1  UNL1        0.1956
     21 C         138.1172  142.1131  161.5520 C.2     1  UNL1        0.2489
     22 O         138.2494  142.8097  160.2301 O.2     1  UNL1       -0.2728
     23 N         137.9610  142.9149  162.8100 N.am    1  UNL1       -0.2778
     24 C         137.8947  144.3780  163.1338 C.3     1  UNL1        0.0952
     25 C         137.7401  144.0489  164.5891 C.3     1  UNL1        0.0430
     26 C         137.8064  142.5858  164.2653 C.3     1  UNL1        0.0952
@<TRIPOS>BOND
     1     1     2    1
     2     2     3   ar
     3     3     4    2
     4     3     5   ar
     5     5    20    1
     6    20    21    1
     7    21    22    2
     8    21    23   am
     9    23    24    1
    10    24    25    1
    11    25    26    1
    12     5     6   ar
    13     6     7   ar
    14     7     8   ar
    15     8    12    1
    16    12    13   ar
    17    13    14   ar
    18    14    17    1
    19    17    18    1
    20    17    19    1
    21    14    15   ar
    22    15    16   ar
    23     8     9   ar
    24     9    10   ar
    25    10    11   ar
    26    11     2   ar
    27    26    23    1
    28    11     6   ar
    29    16    12   ar
@<TRIPOS>MOLECULE
*****
 26 29 0 0 0
SMALL
GASTEIGER

@<TRIPOS>ATOM
      1 C         137.3914  139.9756  160.4726 C.3     1  UNL1        0.1366
      2 N         138.1112  141.0149  161.2799 N.ar    1  UNL1       -0.2630
      3 C         138.5931  142.3437  160.7778 C.ar    1  UNL1        0.3331
      4 O         138.4398  142.8665  159.3802 O.2     1  UNL1       -0.2462
      5 N         139.2552  143.0579  161.9186 N.ar    1  UNL1       -0.2694
      6 C         139.1825  142.1705  163.1258 C.ar    1  UNL1        0.0986
      7 C         139.6688  142.3491  164.5335 C.ar    1  UNL1        0.0224
      8 C         139.4480  141.2651  165.5464 C.ar    1  UNL1        0.0267
      9 C         138.7410  140.0024  165.1517 C.ar    1  UNL1        0.1011
     10 N         138.2547  139.8238  163.7440 N.ar    1  UNL1       -0.2251
     11 C         138.4755  140.9079  162.7311 C.ar    1  UNL1        0.1633
     12 C         139.9343  141.4436  166.9542 C.ar    1  UNL1        0.0309
     13 C         140.4827  142.7092  167.5437 C.ar    1  UNL1        0.0082
     14 C         140.8448  142.4357  168.9734 C.ar    1  UNL1        0.0505
     15 C         140.5203  141.0010  169.2675 C.ar    1  UNL1        0.0366
     16 S         139.9576  140.3879  168.0195 S.2     1  UNL1       -0.0865
     17 C         141.4290  143.4234  169.9395 C.3     1  UNL1        0.3415
     18 F         142.7014  143.1002  170.6650 F       1  UNL1       -0.1932
     19 F         140.7407  144.7342  170.1799 F       1  UNL1       -0.1932
     20 C         139.8802  144.4203  161.8622 C.3     1  UNL1        0.1956
     21 C         141.3445  144.5621  161.5690 C.2     1  UNL1        0.2489
     22 O         141.8186  144.6651  160.1496 O.2     1  UNL1       -0.2728
     23 N         142.3346  144.6010  162.6951 N.am    1  UNL1       -0.2778
     24 C         143.8260  144.7284  162.7922 C.3     1  UNL1        0.0952
     25 C         143.7348  144.6560  164.2877 C.3     1  UNL1        0.0430
     26 C         142.2434  144.5285  164.1906 C.3     1  UNL1        0.0952
@<TRIPOS>BOND
     1     1     2    1
     2     2     3   ar
     3     3     4    2
     4     3     5   ar
     5     5    20    1
     6    20    21    1
     7    21    22    2
     8    21    23   am
     9    23    24    1
    10    24    25    1
    11    25    26    1
    12     5     6   ar
    13     6     7   ar
    14     7     8   ar
    15     8    12    1
    16    12    13   ar
    17    13    14   ar
    18    14    17    1
    19    17    18    1
    20    17    19    1
    21    14    15   ar
    22    15    16   ar
    23     8     9   ar
    24     9    10   ar
    25    10    11   ar
    26    11     2   ar
    27    26    23    1
    28    11     6   ar
    29    16    12   ar
@<TRIPOS>MOLECULE
*****
 26 29 0 0 0
SMALL
GASTEIGER

@<TRIPOS>ATOM
      1 C         144.0991  138.7486  160.6172 C.3     1  UNL1        0.1366
      2 N         143.7299  139.8333  161.5852 N.ar    1  UNL1       -0.2630
      3 C         143.7996  141.3089  161.3246 C.ar    1  UNL1        0.3331
      4 O         144.2507  141.9588  160.0502 O.2     1  UNL1       -0.2462
      5 N         143.3389  142.0204  162.5621 N.ar    1  UNL1       -0.2694
      6 C         142.9845  140.9846  163.5876 C.ar    1  UNL1        0.0986
      7 C         142.4730  141.0976  164.9931 C.ar    1  UNL1        0.0224
      8 C         142.2031  139.8590  165.7949 C.ar    1  UNL1        0.0267
      9 C         142.4448  138.5073  165.1911 C.ar    1  UNL1        0.1011
     10 N         142.9563  138.3943  163.7856 N.ar    1  UNL1       -0.2251
     11 C         143.2261  139.6329  162.9838 C.ar    1  UNL1        0.1633
     12 C         141.6916  139.9720  167.2005 C.ar    1  UNL1        0.0309
     13 C         140.3572  140.5198  167.6118 C.ar    1  UNL1        0.0082
     14 C         140.2656  140.4433  169.1070 C.ar    1  UNL1        0.0505
     15 C         141.5435  139.8483  169.6199 C.ar    1  UNL1        0.0366
     16 S         142.4248  139.5570  168.4416 S.2     1  UNL1       -0.0865
     17 C         139.1007  140.8845  169.9427 C.3     1  UNL1        0.3415
     18 F         137.9378  139.9612  170.1554 F       1  UNL1       -0.1932
     19 F         139.0986  142.2490  170.5657 F       1  UNL1       -0.1932
     20 C         143.2485  143.5068  162.7426 C.3     1  UNL1        0.1956
     21 C         142.0655  144.2569  162.2060 C.2     1  UNL1        0.2489
     22 O         142.0828  144.7779  160.7995 O.2     1  UNL1       -0.2728
     23 N         140.8651  144.4859  163.0759 N.am    1  UNL1       -0.2778
     24 C         139.5406  145.1668  162.8976 C.3     1  UNL1        0.0952
     25 C         139.1676  144.8098  164.3061 C.3     1  UNL1        0.0430
     26 C         140.4922  144.1290  164.4842 C.3     1  UNL1        0.0952
@<TRIPOS>BOND
     1     1     2    1
     2     2     3   ar
     3     3     4    2
     4     3     5   ar
     5     5    20    1
     6    20    21    1
     7    21    22    2
     8    21    23   am
     9    23    24    1
    10    24    25    1
    11    25    26    1
    12     5     6   ar
    13     6     7   ar
    14     7     8   ar
    15     8    12    1
    16    12    13   ar
    17    13    14   ar
    18    14    17    1
    19    17    18    1
    20    17    19    1
    21    14    15   ar
    22    15    16   ar
    23     8     9   ar
    24     9    10   ar
    25    10    11   ar
    26    11     2   ar
    27    26    23    1
    28    11     6   ar
    29    16    12   ar
@<TRIPOS>MOLECULE
*****
 26 29 0 0 0
SMALL
GASTEIGER

@<TRIPOS>ATOM
      1 C         143.7718  138.1813  161.8622 C.3     1  UNL1        0.1366
      2 N         143.6179  139.5702  162.4075 N.ar    1  UNL1       -0.2630
      3 C         143.7644  140.8441  161.6293 C.ar    1  UNL1        0.3331
      4 O         144.0906  140.9529  160.1692 O.2     1  UNL1       -0.2462
      5 N         143.5275  141.9902  162.5676 N.ar    1  UNL1       -0.2694
      6 C         143.2346  141.4246  163.9256 C.ar    1  UNL1        0.0986
      7 C         142.9242  142.0783  165.2395 C.ar    1  UNL1        0.0224
      8 C         142.6697  141.2362  166.4544 C.ar    1  UNL1        0.0267
      9 C         142.7255  139.7405  166.3555 C.ar    1  UNL1        0.1011
     10 N         143.0359  139.0869  165.0416 N.ar    1  UNL1       -0.2251
     11 C         143.2904  139.9289  163.8267 C.ar    1  UNL1        0.1633
     12 C         142.3592  141.8899  167.7684 C.ar    1  UNL1        0.0309
     13 C         141.0774  142.5808  168.1285 C.ar    1  UNL1        0.0082
     14 C         141.2022  143.0852  169.5356 C.ar    1  UNL1        0.0505
     15 C         142.5611  142.7061  170.0452 C.ar    1  UNL1        0.0366
     16 S         143.2762  141.9674  168.9530 S.2     1  UNL1       -0.0865
     17 C         140.1523  143.8369  170.2990 C.3     1  UNL1        0.3415
     18 F         140.0991  145.3341  170.2255 F       1  UNL1       -0.1932
     19 F         139.1556  143.0912  171.1361 F       1  UNL1       -0.1932
     20 C         143.5751  143.4463  162.2105 C.3     1  UNL1        0.1956
     21 C         142.4573  144.0623  161.4222 C.2     1  UNL1        0.2489
     22 O         142.6023  144.2579  159.9421 O.2     1  UNL1       -0.2728
     23 N         141.1945  144.4825  162.1141 N.am    1  UNL1       -0.2778
     24 C         139.9045  145.1110  161.6773 C.3     1  UNL1        0.0952
     25 C         139.4086  145.0769  163.0926 C.3     1  UNL1        0.0430
     26 C         140.6987  144.4484  163.5294 C.3     1  UNL1        0.0952
@<TRIPOS>BOND
     1     1     2    1
     2     2     3   ar
     3     3     4    2
     4     3     5   ar
     5     5    20    1
     6    20    21    1
     7    21    22    2
     8    21    23   am
     9    23    24    1
    10    24    25    1
    11    25    26    1
    12     5     6   ar
    13     6     7   ar
    14     7     8   ar
    15     8    12    1
    16    12    13   ar
    17    13    14   ar
    18    14    17    1
    19    17    18    1
    20    17    19    1
    21    14    15   ar
    22    15    16   ar
    23     8     9   ar
    24     9    10   ar
    25    10    11   ar
    26    11     2   ar
    27    26    23    1
    28    11     6   ar
    29    16    12   ar
@<TRIPOS>MOLECULE
*****
 26 29 0 0 0
SMALL
GASTEIGER

@<TRIPOS>ATOM
      1 C         138.0379  142.3029  156.6463 C.3     1  UNL1        0.1366
      2 N         138.6080  142.5064  158.0188 N.ar    1  UNL1       -0.2630
      3 C         139.4020  143.6938  158.4766 C.ar    1  UNL1        0.3331
      4 O         139.7655  144.8862  157.6423 O.2     1  UNL1       -0.2462
      5 N         139.7688  143.4793  159.9151 N.ar    1  UNL1       -0.2694
      6 C         139.2015  142.1594  160.3464 C.ar    1  UNL1        0.0986
      7 C         139.2454  141.4274  161.6549 C.ar    1  UNL1        0.0224
      8 C         138.5720  140.0941  161.7914 C.ar    1  UNL1        0.0267
      9 C         137.8545  139.4928  160.6194 C.ar    1  UNL1        0.1011
     10 N         137.8105  140.2248  159.3109 N.ar    1  UNL1       -0.2251
     11 C         138.4840  141.5581  159.1744 C.ar    1  UNL1        0.1633
     12 C         138.6159  139.3621  163.1000 C.ar    1  UNL1        0.0309
     13 C         138.1780  139.9037  164.4284 C.ar    1  UNL1        0.0082
     14 C         138.3969  138.8363  165.4592 C.ar    1  UNL1        0.0505
     15 C         138.9702  137.6348  164.7678 C.ar    1  UNL1        0.0366
     16 S         139.1055  137.9598  163.3097 S.2     1  UNL1       -0.0865
     17 C         138.0956  138.9502  166.9242 C.3     1  UNL1        0.3415
     18 F         136.9607  138.1705  167.5194 F       1  UNL1       -0.1932
     19 F         138.9290  139.8439  167.7941 F       1  UNL1       -0.1932
     20 C         140.5635  144.4197  160.7720 C.3     1  UNL1        0.1956
     21 C         142.0416  144.2206  160.9327 C.2     1  UNL1        0.2489
     22 O         142.8577  143.7029  159.7856 O.2     1  UNL1       -0.2728
     23 N         142.7035  144.5391  162.2406 N.am    1  UNL1       -0.2778
     24 C         144.1081  144.4718  162.7625 C.3     1  UNL1        0.0952
     25 C         143.6395  144.9897  164.0901 C.3     1  UNL1        0.0430
     26 C         142.2349  145.0570  163.5681 C.3     1  UNL1        0.0952
@<TRIPOS>BOND
     1     1     2    1
     2     2     3   ar
     3     3     4    2
     4     3     5   ar
     5     5    20    1
     6    20    21    1
     7    21    22    2
     8    21    23   am
     9    23    24    1
    10    24    25    1
    11    25    26    1
    12     5     6   ar
    13     6     7   ar
    14     7     8   ar
    15     8    12    1
    16    12    13   ar
    17    13    14   ar
    18    14    17    1
    19    17    18    1
    20    17    19    1
    21    14    15   ar
    22    15    16   ar
    23     8     9   ar
    24     9    10   ar
    25    10    11   ar
    26    11     2   ar
    27    26    23    1
    28    11     6   ar
    29    16    12   ar
@<TRIPOS>MOLECULE
*****
 26 29 0 0 0
SMALL
GASTEIGER

@<TRIPOS>ATOM
      1 C         138.6582  138.0096  161.1221 C.3     1  UNL1        0.1366
      2 N         139.7648  138.3885  162.0612 N.ar    1  UNL1       -0.2630
      3 C         141.2317  138.1860  161.8225 C.ar    1  UNL1        0.3331
      4 O         141.8497  137.5690  160.6029 O.2     1  UNL1       -0.2462
      5 N         141.9722  138.7088  163.0177 N.ar    1  UNL1       -0.2694
      6 C         140.9629  139.2344  163.9949 C.ar    1  UNL1        0.0986
      7 C         141.1100  139.8677  165.3467 C.ar    1  UNL1        0.0224
      8 C         139.8926  140.3030  166.1073 C.ar    1  UNL1        0.0267
      9 C         138.5283  140.1051  165.5162 C.ar    1  UNL1        0.1011
     10 N         138.3813  139.4718  164.1644 N.ar    1  UNL1       -0.2251
     11 C         139.5986  139.0365  163.4038 C.ar    1  UNL1        0.1633
     12 C         140.0396  140.9364  167.4591 C.ar    1  UNL1        0.0309
     13 C         140.6214  142.2901  167.7400 C.ar    1  UNL1        0.0082
     14 C         140.5719  142.5175  169.2219 C.ar    1  UNL1        0.0505
     15 C         139.9595  141.3042  169.8568 C.ar    1  UNL1        0.0366
     16 S         139.6305  140.3271  168.7674 S.2     1  UNL1       -0.0865
     17 C         141.0508  143.7429  169.9423 C.3     1  UNL1        0.3415
     18 F         140.1294  144.9119  170.1278 F       1  UNL1       -0.1932
     19 F         142.4510  143.7994  170.4772 F       1  UNL1       -0.1932
     20 C         143.4608  138.7064  163.2030 C.3     1  UNL1        0.1956
     21 C         144.2086  140.0043  163.2834 C.2     1  UNL1        0.2489
     22 O         144.8655  140.4130  164.5684 O.2     1  UNL1       -0.2728
     23 N         144.2996  140.8934  162.0787 N.am    1  UNL1       -0.2778
     24 C         144.9374  142.2187  161.7844 C.3     1  UNL1        0.0952
     25 C         144.4282  142.1507  160.3750 C.3     1  UNL1        0.0430
     26 C         143.7904  140.8253  160.6694 C.3     1  UNL1        0.0952
@<TRIPOS>BOND
     1     1     2    1
     2     2     3   ar
     3     3     4    2
     4     3     5   ar
     5     5    20    1
     6    20    21    1
     7    21    22    2
     8    21    23   am
     9    23    24    1
    10    24    25    1
    11    25    26    1
    12     5     6   ar
    13     6     7   ar
    14     7     8   ar
    15     8    12    1
    16    12    13   ar
    17    13    14   ar
    18    14    17    1
    19    17    18    1
    20    17    19    1
    21    14    15   ar
    22    15    16   ar
    23     8     9   ar
    24     9    10   ar
    25    10    11   ar
    26    11     2   ar
    27    26    23    1
    28    11     6   ar
    29    16    12   ar
@<TRIPOS>MOLECULE
*****
 26 29 0 0 0
SMALL
GASTEIGER

@<TRIPOS>ATOM
      1 C         144.8913  142.4576  160.8971 C.3     1  UNL1        0.1366
      2 N         144.1503  141.3719  161.6198 N.ar    1  UNL1       -0.2630
      3 C         143.7602  140.0405  161.0496 C.ar    1  UNL1        0.3331
      4 O         144.0425  139.5609  159.6567 O.2     1  UNL1       -0.2462
      5 N         143.0381  139.2728  162.1170 N.ar    1  UNL1       -0.2694
      6 C         142.9819  140.1297  163.3468 C.ar    1  UNL1        0.0986
      7 C         142.3937  139.8963  164.7068 C.ar    1  UNL1        0.0224
      8 C         142.4929  140.9603  165.7594 C.ar    1  UNL1        0.0267
      9 C         143.1802  142.2576  165.4521 C.ar    1  UNL1        0.1011
     10 N         143.7685  142.4910  164.0922 N.ar    1  UNL1       -0.2251
     11 C         143.6693  141.4271  163.0395 C.ar    1  UNL1        0.1633
     12 C         141.9046  140.7269  167.1194 C.ar    1  UNL1        0.0309
     13 C         140.6272  141.3158  167.6404 C.ar    1  UNL1        0.0082
     14 C         140.4236  140.8165  169.0402 C.ar    1  UNL1        0.0505
     15 C         141.5753  139.9191  169.3843 C.ar    1  UNL1        0.0366
     16 S         142.4906  139.8637  168.1972 S.2     1  UNL1       -0.0865
     17 C         139.2708  141.1552  169.9382 C.3     1  UNL1        0.3415
     18 F         139.2206  142.4884  170.6237 F       1  UNL1       -0.1932
     19 F         138.1683  140.1607  170.1507 F       1  UNL1       -0.1932
     20 C         142.4716  137.8907  161.9788 C.3     1  UNL1        0.1956
     21 C         141.1598  137.5501  162.6218 C.2     1  UNL1        0.2489
     22 O         141.1266  136.6783  163.8419 O.2     1  UNL1       -0.2728
     23 N         139.8813  138.0814  162.0445 N.am    1  UNL1       -0.2778
     24 C         138.4282  137.9620  162.3970 C.3     1  UNL1        0.0952
     25 C         138.0732  138.8326  161.2282 C.3     1  UNL1        0.0430
     26 C         139.5263  138.9520  160.8757 C.3     1  UNL1        0.0952
@<TRIPOS>BOND
     1     1     2    1
     2     2     3   ar
     3     3     4    2
     4     3     5   ar
     5     5    20    1
     6    20    21    1
     7    21    22    2
     8    21    23   am
     9    23    24    1
    10    24    25    1
    11    25    26    1
    12     5     6   ar
    13     6     7   ar
    14     7     8   ar
    15     8    12    1
    16    12    13   ar
    17    13    14   ar
    18    14    17    1
    19    17    18    1
    20    17    19    1
    21    14    15   ar
    22    15    16   ar
    23     8     9   ar
    24     9    10   ar
    25    10    11   ar
    26    11     2   ar
    27    26    23    1
    28    11     6   ar
    29    16    12   ar
@<TRIPOS>MOLECULE
*****
 26 29 0 0 0
SMALL
GASTEIGER

@<TRIPOS>ATOM
      1 C         140.7899  144.9838  159.7533 C.3     1  UNL1        0.1366
      2 N         140.2260  144.0328  160.7671 N.ar    1  UNL1       -0.2630
      3 C         139.0662  143.1052  160.5563 C.ar    1  UNL1        0.3331
      4 O         138.2667  142.9657  159.2948 O.2     1  UNL1       -0.2462
      5 N         138.8463  142.3416  161.8285 N.ar    1  UNL1       -0.2694
      6 C         139.8702  142.7972  162.8256 C.ar    1  UNL1        0.0986
      7 C         140.1363  142.3954  164.2460 C.ar    1  UNL1        0.0224
      8 C         141.2550  143.0388  165.0104 C.ar    1  UNL1        0.0267
      9 C         142.1077  144.0841  164.3544 C.ar    1  UNL1        0.1011
     10 N         141.8416  144.4859  162.9339 N.ar    1  UNL1       -0.2251
     11 C         140.7229  143.8425  162.1695 C.ar    1  UNL1        0.1633
     12 C         141.5211  142.6370  166.4310 C.ar    1  UNL1        0.0309
     13 C         140.5422  142.7074  167.5653 C.ar    1  UNL1        0.0082
     14 C         141.2289  142.2082  168.8019 C.ar    1  UNL1        0.0505
     15 C         142.6323  141.8293  168.4318 C.ar    1  UNL1        0.0366
     16 S         142.8129  142.0944  166.9665 S.2     1  UNL1       -0.0865
     17 C         140.6193  142.1058  170.1686 C.3     1  UNL1        0.3415
     18 F         141.4940  142.1600  171.3860 F       1  UNL1       -0.1932
     19 F         139.1350  141.9493  170.3180 F       1  UNL1       -0.1932
     20 C         137.7883  141.3044  162.0627 C.3     1  UNL1        0.1956
     21 C         138.1029  139.8522  161.8565 C.2     1  UNL1        0.2489
     22 O         138.0573  139.2634  160.4777 O.2     1  UNL1       -0.2728
     23 N         138.4631  138.9890  163.0291 N.am    1  UNL1       -0.2778
     24 C         138.8276  137.5454  163.2111 C.3     1  UNL1        0.0952
     25 C         138.9725  137.7682  164.6875 C.3     1  UNL1        0.0430
     26 C         138.6080  139.2118  164.5054 C.3     1  UNL1        0.0952
@<TRIPOS>BOND
     1     1     2    1
     2     2     3   ar
     3     3     4    2
     4     3     5   ar
     5     5    20    1
     6    20    21    1
     7    21    22    2
     8    21    23   am
     9    23    24    1
    10    24    25    1
    11    25    26    1
    12     5     6   ar
    13     6     7   ar
    14     7     8   ar
    15     8    12    1
    16    12    13   ar
    17    13    14   ar
    18    14    17    1
    19    17    18    1
    20    17    19    1
    21    14    15   ar
    22    15    16   ar
    23     8     9   ar
    24     9    10   ar
    25    10    11   ar
    26    11     2   ar
    27    26    23    1
    28    11     6   ar
    29    16    12   ar
@<TRIPOS>MOLECULE
*****
 26 29 0 0 0
SMALL
GASTEIGER

@<TRIPOS>ATOM
      1 C         144.9856  142.5301  160.7155 C.3     1  UNL1        0.1366
      2 N         144.3180  141.5407  161.6241 N.ar    1  UNL1       -0.2630
      3 C         143.9181  140.1411  161.2618 C.ar    1  UNL1        0.3331
      4 O         144.1155  139.4852  159.9273 O.2     1  UNL1       -0.2462
      5 N         143.2861  139.5127  162.4683 N.ar    1  UNL1       -0.2694
      6 C         143.2955  140.5238  163.5762 C.ar    1  UNL1        0.0986
      7 C         142.8057  140.4651  164.9928 C.ar    1  UNL1        0.0224
      8 C         142.9536  141.6599  165.8875 C.ar    1  UNL1        0.0267
      9 C         143.5914  142.9133  165.3658 C.ar    1  UNL1        0.1011
     10 N         144.0812  142.9720  163.9492 N.ar    1  UNL1       -0.2251
     11 C         143.9333  141.7772  163.0545 C.ar    1  UNL1        0.1633
     12 C         142.4638  141.6013  167.3041 C.ar    1  UNL1        0.0309
     13 C         141.2317  140.8920  167.7824 C.ar    1  UNL1        0.0082
     14 C         141.1265  141.0941  169.2650 C.ar    1  UNL1        0.0505
     15 C         142.2938  141.9282  169.7031 C.ar    1  UNL1        0.0366
     16 S         143.1203  142.2416  168.4912 S.2     1  UNL1       -0.0865
     17 C         140.0442  140.5564  170.1535 C.3     1  UNL1        0.3415
     18 F         140.3341  140.2641  171.5959 F       1  UNL1       -0.1932
     19 F         138.6720  140.3109  169.5997 F       1  UNL1       -0.1932
     20 C         142.7406  138.1179  162.5522 C.3     1  UNL1        0.1956
     21 C         141.2904  137.8614  162.2668 C.2     1  UNL1        0.2489
     22 O         140.8191  137.7157  160.8503 O.2     1  UNL1       -0.2728
     23 N         140.3116  137.7505  163.3981 N.am    1  UNL1       -0.2778
     24 C         138.8351  137.5079  163.5031 C.3     1  UNL1        0.0952
     25 C         138.9274  137.5937  164.9979 C.3     1  UNL1        0.0430
     26 C         140.4039  137.8363  164.8928 C.3     1  UNL1        0.0952
@<TRIPOS>BOND
     1     1     2    1
     2     2     3   ar
     3     3     4    2
     4     3     5   ar
     5     5    20    1
     6    20    21    1
     7    21    22    2
     8    21    23   am
     9    23    24    1
    10    24    25    1
    11    25    26    1
    12     5     6   ar
    13     6     7   ar
    14     7     8   ar
    15     8    12    1
    16    12    13   ar
    17    13    14   ar
    18    14    17    1
    19    17    18    1
    20    17    19    1
    21    14    15   ar
    22    15    16   ar
    23     8     9   ar
    24     9    10   ar
    25    10    11   ar
    26    11     2   ar
    27    26    23    1
    28    11     6   ar
    29    16    12   ar
