@<TRIPOS>MOLECULE
*****
 39 42 0 0 0
SMALL
GASTEIGER

@<TRIPOS>ATOM
      1 C         145.2108  135.7950  169.8064 C.3     1  UNL1        0.0437
      2 C         144.1993  136.8852  170.0018 C.3     1  UNL1        0.1368
      3 C         144.3525  136.4151  171.4180 C.3     1  UNL1        0.0437
      4 C         143.2409  137.8121  170.6891 C.3     1  UNL1        0.0643
      5 C         142.4807  138.8306  169.8924 C.3     1  UNL1        0.1020
      6 C         142.6787  138.9221  168.4084 C.ar    1  UNL1        0.0488
      7 C         141.9185  139.9406  167.6116 C.ar    1  UNL1        0.0034
      8 C         142.1165  140.0321  166.1276 C.ar    1  UNL1        0.0177
      9 C         143.0749  139.1051  165.4403 C.ar    1  UNL1        0.0851
     10 N         143.8352  138.0867  166.2370 N.ar    1  UNL1       -0.2119
     11 C         143.6371  137.9952  167.7211 C.ar    1  UNL1        0.2219
     12 O         144.3973  136.9768  168.5178 O.3     1  UNL1       -0.4676
     13 C         143.2730  139.1967  163.9563 C.ar    1  UNL1        0.0284
     14 C         142.4374  138.3583  163.0349 C.ar    1  UNL1        0.0032
     15 C         142.6355  138.4498  161.5508 C.ar    1  UNL1        0.0115
     16 C         143.6691  139.3798  160.9882 C.ar    1  UNL1        0.0585
     17 CL        143.8672  139.4713  159.5041 Cl      1  UNL1       -0.0822
     18 C         144.5048  140.2182  161.9095 C.ar    1  UNL1        0.0228
     19 C         144.3067  140.1266  163.3935 C.ar    1  UNL1        0.0599
     20 CL        145.1423  140.9650  164.3148 Cl      1  UNL1       -0.0822
     21 C         141.3563  141.0505  165.3309 C.ar    1  UNL1        0.0015
     22 C         141.9263  142.4234  165.1298 C.ar    1  UNL1        0.0009
     23 C         141.1661  143.4418  164.3330 C.ar    1  UNL1        0.0114
     24 C         139.8357  143.0874  163.7374 C.ar    1  UNL1        0.0577
     25 CL        139.0755  144.1058  162.9407 Cl      1  UNL1       -0.0822
     26 C         139.2657  141.7146  163.9386 C.ar    1  UNL1        0.0114
     27 C         140.0260  140.6962  164.7353 C.ar    1  UNL1        0.0009
     28 N         141.5223  139.7575  170.5798 N.am    1  UNL1       -0.3018
     29 C         141.9221  141.1754  170.8618 C.2     1  UNL1        0.2254
     30 O         143.2803  141.6665  170.4565 O.2     1  UNL1       -0.2750
     31 H         140.6309  139.4352  170.8458 H       1  UNL1        0.1497
     32 C         140.9637  142.1024  171.5492 C.3     1  UNL1        0.1231
     33 C         139.9104  142.8161  170.7548 C.3     1  UNL1        0.2151
     34 O         138.6359  143.2484  171.4170 O.3     1  UNL1       -0.3765
     35 H         138.0682  143.6919  170.7674 H       1  UNL1        0.2107
     36 C         140.1317  143.0976  169.2982 C.3     1  UNL1        0.4223
     37 F         140.3530  143.3790  167.8415 F       1  UNL1       -0.1675
     38 F         139.5362  141.7656  168.9503 F       1  UNL1       -0.1675
     39 F         140.7273  144.4296  169.6460 F       1  UNL1       -0.1675
@<TRIPOS>BOND
     1     1     2    1
     2     2     3    1
     3     2     4    1
     4     4     5    1
     5     5    28    1
     6    28    29   am
     7    29    30    2
     8    29    32    1
     9    32    33    1
    10    33    34    1
    11    33    36    1
    12    36    37    1
    13    36    38    1
    14    36    39    1
    15     5     6    1
    16     6     7   ar
    17     7     8   ar
    18     8    21    1
    19    21    22   ar
    20    22    23   ar
    21    23    24   ar
    22    24    25    1
    23    24    26   ar
    24    26    27   ar
    25     8     9   ar
    26     9    13    1
    27    13    14   ar
    28    14    15   ar
    29    15    16   ar
    30    16    17    1
    31    16    18   ar
    32    18    19   ar
    33    19    20    1
    34     9    10   ar
    35    10    11   ar
    36    11    12    1
    37    12     2    1
    38    11     6   ar
    39    27    21   ar
    40    19    13   ar
    41    28    31    1
    42    34    35    1
@<TRIPOS>MOLECULE
*****
 39 42 0 0 0
SMALL
GASTEIGER

@<TRIPOS>ATOM
      1 C         139.1315  147.3533  155.6044 C.3     1  UNL1        0.0437
      2 C         140.3336  146.4568  155.6395 C.3     1  UNL1        0.1368
      3 C         140.3761  146.8934  154.2051 C.3     1  UNL1        0.0437
      4 C         141.5504  145.7119  155.1765 C.3     1  UNL1        0.0643
      5 C         142.3072  144.8417  156.1357 C.3     1  UNL1        0.1020
      6 C         141.8472  144.7164  157.5579 C.ar    1  UNL1        0.0488
      7 C         142.6040  143.8462  158.5171 C.ar    1  UNL1        0.0034
      8 C         142.1440  143.7209  159.9392 C.ar    1  UNL1        0.0177
      9 C         140.9271  144.4658  160.4023 C.ar    1  UNL1        0.0851
     10 N         140.1703  145.3360  159.4432 N.ar    1  UNL1       -0.2119
     11 C         140.6304  145.4613  158.0209 C.ar    1  UNL1        0.2219
     12 O         139.8736  146.3315  157.0617 O.3     1  UNL1       -0.4676
     13 C         140.4671  144.3405  161.8245 C.ar    1  UNL1        0.0284
     14 C         141.1227  145.1559  162.8994 C.ar    1  UNL1        0.0032
     15 C         140.6626  145.0306  164.3217 C.ar    1  UNL1        0.0115
     16 C         139.5471  144.0899  164.6689 C.ar    1  UNL1        0.0585
     17 CL        139.0871  143.9646  166.0911 Cl      1  UNL1       -0.0822
     18 C         138.8915  143.2745  163.5940 C.ar    1  UNL1        0.0228
     19 C         139.3515  143.3998  162.1718 C.ar    1  UNL1        0.0599
     20 CL        138.6960  142.5844  161.0969 Cl      1  UNL1       -0.0822
     21 C         142.9009  142.8507  160.8984 C.ar    1  UNL1        0.0015
     22 C         142.4591  141.4373  161.1375 C.ar    1  UNL1        0.0009
     23 C         143.2159  140.5671  162.0967 C.ar    1  UNL1        0.0114
     24 C         144.4145  141.1104  162.8167 C.ar    1  UNL1        0.0577
     25 CL        145.1713  140.2402  163.7759 Cl      1  UNL1       -0.0822
     26 C         144.8562  142.5237  162.5776 C.ar    1  UNL1        0.0114
     27 C         144.0994  143.3939  161.6184 C.ar    1  UNL1        0.0009
     28 N         143.5241  144.0968  155.6726 N.am    1  UNL1       -0.3018
     29 C         143.4409  142.6260  155.3904 C.2     1  UNL1        0.2254
     30 O         142.1408  141.9000  155.5712 O.2     1  UNL1       -0.2750
     31 H         144.3774  144.5733  155.5539 H       1  UNL1        0.1497
     32 C         144.6578  141.8811  154.9273 C.3     1  UNL1        0.1231
     33 C         145.6245  141.3260  155.9310 C.3     1  UNL1        0.2151
     34 O         145.8276  139.8436  156.0364 O.3     1  UNL1       -0.3765
     35 H         146.4804  139.6551  156.7286 H       1  UNL1        0.2107
     36 C         146.3880  142.2534  156.8292 C.3     1  UNL1        0.4223
     37 F         147.1516  143.1809  157.7275 F       1  UNL1       -0.1675
     38 F         145.3818  142.0271  157.9183 F       1  UNL1       -0.1675
     39 F         147.3943  142.4798  155.7400 F       1  UNL1       -0.1675
@<TRIPOS>BOND
     1     1     2    1
     2     2     3    1
     3     2     4    1
     4     4     5    1
     5     5    28    1
     6    28    29   am
     7    29    30    2
     8    29    32    1
     9    32    33    1
    10    33    34    1
    11    33    36    1
    12    36    37    1
    13    36    38    1
    14    36    39    1
    15     5     6    1
    16     6     7   ar
    17     7     8   ar
    18     8    21    1
    19    21    22   ar
    20    22    23   ar
    21    23    24   ar
    22    24    25    1
    23    24    26   ar
    24    26    27   ar
    25     8     9   ar
    26     9    13    1
    27    13    14   ar
    28    14    15   ar
    29    15    16   ar
    30    16    17    1
    31    16    18   ar
    32    18    19   ar
    33    19    20    1
    34     9    10   ar
    35    10    11   ar
    36    11    12    1
    37    12     2    1
    38    11     6   ar
    39    27    21   ar
    40    19    13   ar
    41    28    31    1
    42    34    35    1
@<TRIPOS>MOLECULE
*****
 39 42 0 0 0
SMALL
GASTEIGER

@<TRIPOS>ATOM
      1 C         137.8528  138.3907  154.3149 C.3     1  UNL1        0.0437
      2 C         139.0825  137.8051  154.9432 C.3     1  UNL1        0.1368
      3 C         139.1480  137.1590  153.5910 C.3     1  UNL1        0.0437
      4 C         140.3350  136.9951  155.1019 C.3     1  UNL1        0.0643
      5 C         141.0949  137.0345  156.3946 C.3     1  UNL1        0.1020
      6 C         140.6024  137.8839  157.5286 C.ar    1  UNL1        0.0488
      7 C         141.3623  137.9233  158.8212 C.ar    1  UNL1        0.0034
      8 C         140.8697  138.7727  159.9552 C.ar    1  UNL1        0.0177
      9 C         139.6172  139.5827  159.7965 C.ar    1  UNL1        0.0851
     10 N         138.8573  139.5433  158.5039 N.ar    1  UNL1       -0.2119
     11 C         139.3499  138.6939  157.3699 C.ar    1  UNL1        0.2219
     12 O         138.5900  138.6544  156.0772 O.3     1  UNL1       -0.4676
     13 C         139.1247  140.4321  160.9305 C.ar    1  UNL1        0.0284
     14 C         139.5937  141.8506  161.0637 C.ar    1  UNL1        0.0032
     15 C         139.1011  142.7000  162.1978 C.ar    1  UNL1        0.0115
     16 C         138.1395  142.1309  163.1985 C.ar    1  UNL1        0.0585
     17 CL        137.6470  142.9802  164.3324 Cl      1  UNL1       -0.0822
     18 C         137.6705  140.7123  163.0652 C.ar    1  UNL1        0.0228
     19 C         138.1631  139.8629  161.9312 C.ar    1  UNL1        0.0599
     20 CL        137.6941  138.4444  161.7980 Cl      1  UNL1       -0.0822
     21 C         141.6297  138.8121  161.2478 C.ar    1  UNL1        0.0015
     22 C         142.7320  139.8112  161.4396 C.ar    1  UNL1        0.0009
     23 C         143.4919  139.8506  162.7323 C.ar    1  UNL1        0.0114
     24 C         143.1495  138.8909  163.8332 C.ar    1  UNL1        0.0577
     25 CL        143.9094  138.9303  165.1258 Cl      1  UNL1       -0.0822
     26 C         142.0472  137.8919  163.6413 C.ar    1  UNL1        0.0114
     27 C         141.2873  137.8525  162.3487 C.ar    1  UNL1        0.0009
     28 N         142.3474  136.2245  156.5533 N.am    1  UNL1       -0.3018
     29 C         142.3809  134.7972  156.0932 C.2     1  UNL1        0.2254
     30 O         141.1618  134.1799  155.4745 O.2     1  UNL1       -0.2750
     31 H         143.1476  136.6296  156.9594 H       1  UNL1        0.1497
     32 C         143.6334  133.9872  156.2519 C.3     1  UNL1        0.1231
     33 C         143.9963  133.4222  157.5932 C.3     1  UNL1        0.2151
     34 O         143.7241  134.2127  158.8386 O.3     1  UNL1       -0.3765
     35 H         144.0167  133.7071  159.6129 H       1  UNL1        0.2107
     36 C         144.6316  132.0668  157.6890 C.3     1  UNL1        0.4223
     37 F         145.2669  130.7113  157.7849 F       1  UNL1       -0.1675
     38 F         145.8187  132.6719  158.3779 F       1  UNL1       -0.1675
     39 F         143.4445  131.4617  157.0002 F       1  UNL1       -0.1675
@<TRIPOS>BOND
     1     1     2    1
     2     2     3    1
     3     2     4    1
     4     4     5    1
     5     5    28    1
     6    28    29   am
     7    29    30    2
     8    29    32    1
     9    32    33    1
    10    33    34    1
    11    33    36    1
    12    36    37    1
    13    36    38    1
    14    36    39    1
    15     5     6    1
    16     6     7   ar
    17     7     8   ar
    18     8    21    1
    19    21    22   ar
    20    22    23   ar
    21    23    24   ar
    22    24    25    1
    23    24    26   ar
    24    26    27   ar
    25     8     9   ar
    26     9    13    1
    27    13    14   ar
    28    14    15   ar
    29    15    16   ar
    30    16    17    1
    31    16    18   ar
    32    18    19   ar
    33    19    20    1
    34     9    10   ar
    35    10    11   ar
    36    11    12    1
    37    12     2    1
    38    11     6   ar
    39    27    21   ar
    40    19    13   ar
    41    28    31    1
    42    34    35    1
@<TRIPOS>MOLECULE
*****
 39 42 0 0 0
SMALL
GASTEIGER

@<TRIPOS>ATOM
      1 C         139.2405  136.9396  156.0294 C.3     1  UNL1        0.0437
      2 C         140.3942  137.8496  156.3309 C.3     1  UNL1        0.1368
      3 C         140.6214  137.6174  154.8665 C.3     1  UNL1        0.0437
      4 C         141.6268  138.6789  156.1238 C.3     1  UNL1        0.0643
      5 C         142.2315  139.4245  157.2764 C.3     1  UNL1        0.1020
      6 C         141.6037  139.3407  158.6361 C.ar    1  UNL1        0.0488
      7 C         142.2084  140.0863  159.7887 C.ar    1  UNL1        0.0034
      8 C         141.5806  140.0025  161.1483 C.ar    1  UNL1        0.0177
      9 C         140.3479  139.1732  161.3555 C.ar    1  UNL1        0.0851
     10 N         139.7432  138.4276  160.2029 N.ar    1  UNL1       -0.2119
     11 C         140.3711  138.5114  158.8432 C.ar    1  UNL1        0.2219
     12 O         139.7664  137.7658  157.6906 O.3     1  UNL1       -0.4676
     13 C         139.7201  139.0894  162.7151 C.ar    1  UNL1        0.0284
     14 C         138.6886  140.0970  163.1283 C.ar    1  UNL1        0.0032
     15 C         138.0608  140.0132  164.4881 C.ar    1  UNL1        0.0115
     16 C         138.4644  138.9218  165.4346 C.ar    1  UNL1        0.0585
     17 CL        137.8365  138.8380  166.7942 Cl      1  UNL1       -0.0822
     18 C         139.4959  137.9142  165.0214 C.ar    1  UNL1        0.0228
     19 C         140.1237  137.9979  163.6617 C.ar    1  UNL1        0.0599
     20 CL        141.1552  136.9903  163.2485 Cl      1  UNL1       -0.0822
     21 C         142.1853  140.7481  162.3009 C.ar    1  UNL1        0.0015
     22 C         141.7818  142.1674  162.5706 C.ar    1  UNL1        0.0009
     23 C         142.3865  142.9130  163.7232 C.ar    1  UNL1        0.0114
     24 C         143.3948  142.2392  164.6061 C.ar    1  UNL1        0.0577
     25 CL        143.9995  142.9847  165.7587 Cl      1  UNL1       -0.0822
     26 C         143.7982  140.8199  164.3364 C.ar    1  UNL1        0.0114
     27 C         143.1935  140.0743  163.1838 C.ar    1  UNL1        0.0009
     28 N         143.4642  140.2539  157.0693 N.am    1  UNL1       -0.3018
     29 C         143.3517  141.6330  156.4904 C.2     1  UNL1        0.2254
     30 O         142.0065  142.1829  156.1186 O.2     1  UNL1       -0.2750
     31 H         144.3470  139.8930  157.3133 H       1  UNL1        0.1497
     32 C         144.5843  142.4624  156.2832 C.3     1  UNL1        0.1231
     33 C         145.9385  141.8699  156.5383 C.3     1  UNL1        0.2151
     34 O         146.2807  140.5168  155.9889 O.3     1  UNL1       -0.3765
     35 H         147.1874  140.2843  156.2434 H       1  UNL1        0.2107
     36 C         146.9504  142.6306  157.3428 C.3     1  UNL1        0.4223
     37 F         147.9625  143.3913  158.1473 F       1  UNL1       -0.1675
     38 F         147.9778  142.3918  156.2763 F       1  UNL1       -0.1675
     39 F         145.9231  142.8694  158.4093 F       1  UNL1       -0.1675
@<TRIPOS>BOND
     1     1     2    1
     2     2     3    1
     3     2     4    1
     4     4     5    1
     5     5    28    1
     6    28    29   am
     7    29    30    2
     8    29    32    1
     9    32    33    1
    10    33    34    1
    11    33    36    1
    12    36    37    1
    13    36    38    1
    14    36    39    1
    15     5     6    1
    16     6     7   ar
    17     7     8   ar
    18     8    21    1
    19    21    22   ar
    20    22    23   ar
    21    23    24   ar
    22    24    25    1
    23    24    26   ar
    24    26    27   ar
    25     8     9   ar
    26     9    13    1
    27    13    14   ar
    28    14    15   ar
    29    15    16   ar
    30    16    17    1
    31    16    18   ar
    32    18    19   ar
    33    19    20    1
    34     9    10   ar
    35    10    11   ar
    36    11    12    1
    37    12     2    1
    38    11     6   ar
    39    27    21   ar
    40    19    13   ar
    41    28    31    1
    42    34    35    1
@<TRIPOS>MOLECULE
*****
 39 42 0 0 0
SMALL
GASTEIGER

@<TRIPOS>ATOM
      1 C         136.6254  143.2285  155.3043 C.3     1  UNL1        0.0437
      2 C         137.3390  141.9734  155.7115 C.3     1  UNL1        0.1368
      3 C         137.0785  141.6678  154.2662 C.3     1  UNL1        0.0437
      4 C         137.9620  140.6122  155.6168 C.3     1  UNL1        0.0643
      5 C         138.5978  139.9926  156.8258 C.3     1  UNL1        0.1020
      6 C         138.6105  140.7341  158.1296 C.ar    1  UNL1        0.0488
      7 C         139.2462  140.1144  159.3387 C.ar    1  UNL1        0.0034
      8 C         139.2589  140.8559  160.6425 C.ar    1  UNL1        0.0177
      9 C         138.6358  142.2171  160.7373 C.ar    1  UNL1        0.0851
     10 N         138.0001  142.8368  159.5283 N.ar    1  UNL1       -0.2119
     11 C         137.9874  142.0952  158.2244 C.ar    1  UNL1        0.2219
     12 O         137.3517  142.7149  157.0153 O.3     1  UNL1       -0.4676
     13 C         138.6485  142.9586  162.0411 C.ar    1  UNL1        0.0284
     14 C         137.5883  142.6892  163.0675 C.ar    1  UNL1        0.0032
     15 C         137.6011  143.4308  164.3714 C.ar    1  UNL1        0.0115
     16 C         138.6740  144.4417  164.6488 C.ar    1  UNL1        0.0585
     17 CL        138.6866  145.1831  165.9527 Cl      1  UNL1       -0.0822
     18 C         139.7341  144.7110  163.6225 C.ar    1  UNL1        0.0228
     19 C         139.7214  143.9696  162.3186 C.ar    1  UNL1        0.0599
     20 CL        140.7816  144.2389  161.2923 Cl      1  UNL1       -0.0822
     21 C         139.8946  140.2362  161.8516 C.ar    1  UNL1        0.0015
     22 C         139.1022  139.3066  162.7223 C.ar    1  UNL1        0.0009
     23 C         139.7380  138.6869  163.9313 C.ar    1  UNL1        0.0114
     24 C         141.1661  138.9969  164.2697 C.ar    1  UNL1        0.0577
     25 CL        141.8018  138.3772  165.4788 Cl      1  UNL1       -0.0822
     26 C         141.9584  139.9265  163.3991 C.ar    1  UNL1        0.0114
     27 C         141.3227  140.5461  162.1900 C.ar    1  UNL1        0.0009
     28 N         139.2208  138.6313  156.7310 N.am    1  UNL1       -0.3018
     29 C         140.6721  138.4937  156.3780 C.2     1  UNL1        0.2254
     30 O         141.5005  139.7173  156.1198 O.2     1  UNL1       -0.2750
     31 H         138.6772  137.8283  156.9005 H       1  UNL1        0.1497
     32 C         141.2952  137.1325  156.2832 C.3     1  UNL1        0.1231
     33 C         142.7416  136.9437  156.6327 C.3     1  UNL1        0.2151
     34 O         143.5026  138.0507  157.3001 O.3     1  UNL1       -0.3765
     35 H         144.4171  137.7668  157.4551 H       1  UNL1        0.2107
     36 C         143.4271  135.6480  156.3148 C.3     1  UNL1        0.4223
     37 F         144.1125  134.3522  155.9967 F       1  UNL1       -0.1675
     38 F         143.6333  136.1041  154.9008 F       1  UNL1       -0.1675
     39 F         143.2208  135.1919  157.7287 F       1  UNL1       -0.1675
@<TRIPOS>BOND
     1     1     2    1
     2     2     3    1
     3     2     4    1
     4     4     5    1
     5     5    28    1
     6    28    29   am
     7    29    30    2
     8    29    32    1
     9    32    33    1
    10    33    34    1
    11    33    36    1
    12    36    37    1
    13    36    38    1
    14    36    39    1
    15     5     6    1
    16     6     7   ar
    17     7     8   ar
    18     8    21    1
    19    21    22   ar
    20    22    23   ar
    21    23    24   ar
    22    24    25    1
    23    24    26   ar
    24    26    27   ar
    25     8     9   ar
    26     9    13    1
    27    13    14   ar
    28    14    15   ar
    29    15    16   ar
    30    16    17    1
    31    16    18   ar
    32    18    19   ar
    33    19    20    1
    34     9    10   ar
    35    10    11   ar
    36    11    12    1
    37    12     2    1
    38    11     6   ar
    39    27    21   ar
    40    19    13   ar
    41    28    31    1
    42    34    35    1
@<TRIPOS>MOLECULE
*****
 39 42 0 0 0
SMALL
GASTEIGER

@<TRIPOS>ATOM
      1 C         135.7506  140.7280  156.3835 C.3     1  UNL1        0.0437
      2 C         137.2478  140.8194  156.3862 C.3     1  UNL1        0.1368
      3 C         136.9716  141.1121  154.9412 C.3     1  UNL1        0.0437
      4 C         138.6491  141.0125  155.8871 C.3     1  UNL1        0.0643
      5 C         139.8066  140.8812  156.8321 C.3     1  UNL1        0.1020
      6 C         139.5629  140.5568  158.2761 C.ar    1  UNL1        0.0488
      7 C         140.7204  140.4255  159.2210 C.ar    1  UNL1        0.0034
      8 C         140.4767  140.1011  160.6651 C.ar    1  UNL1        0.0177
      9 C         139.0753  139.9081  161.1643 C.ar    1  UNL1        0.0851
     10 N         137.9178  140.0394  160.2193 N.ar    1  UNL1       -0.2119
     11 C         138.1616  140.3638  158.7752 C.ar    1  UNL1        0.2219
     12 O         137.0041  140.4951  157.8303 O.3     1  UNL1       -0.4676
     13 C         138.8316  139.5837  162.6083 C.ar    1  UNL1        0.0284
     14 C         138.9614  138.1697  163.0917 C.ar    1  UNL1        0.0032
     15 C         138.7177  137.8453  164.5358 C.ar    1  UNL1        0.0115
     16 C         138.3441  138.9350  165.4965 C.ar    1  UNL1        0.0585
     17 CL        138.1004  138.6107  166.9406 Cl      1  UNL1       -0.0822
     18 C         138.2143  140.3491  165.0132 C.ar    1  UNL1        0.0228
     19 C         138.4580  140.6734  163.5691 C.ar    1  UNL1        0.0599
     20 CL        138.3282  142.0875  163.0858 Cl      1  UNL1       -0.0822
     21 C         141.6342  139.9698  161.6100 C.ar    1  UNL1        0.0015
     22 C         142.4010  138.6826  161.6824 C.ar    1  UNL1        0.0009
     23 C         143.5585  138.5513  162.6273 C.ar    1  UNL1        0.0114
     24 C         143.9492  139.7072  163.4999 C.ar    1  UNL1        0.0577
     25 CL        145.1067  139.5759  164.4448 Cl      1  UNL1       -0.0822
     26 C         143.1824  140.9943  163.4275 C.ar    1  UNL1        0.0114
     27 C         142.0249  141.1256  162.4826 C.ar    1  UNL1        0.0009
     28 N         141.2079  141.0742  156.3329 N.am    1  UNL1       -0.3018
     29 C         141.8847  142.4032  156.4931 C.2     1  UNL1        0.2254
     30 O         141.1603  143.5392  157.1524 O.2     1  UNL1       -0.2750
     31 H         141.6834  140.3287  155.9001 H       1  UNL1        0.1497
     32 C         143.2861  142.5963  155.9939 C.3     1  UNL1        0.1231
     33 C         144.4461  142.4201  156.9283 C.3     1  UNL1        0.2151
     34 O         145.8213  142.8437  156.5050 O.3     1  UNL1       -0.3765
     35 H         146.4503  142.6619  157.2206 H       1  UNL1        0.2107
     36 C         144.2308  141.8203  158.2862 C.3     1  UNL1        0.4223
     37 F         144.0156  141.2205  159.6442 F       1  UNL1       -0.1675
     38 F         144.0711  143.1938  158.8676 F       1  UNL1       -0.1675
     39 F         144.3905  140.4468  157.7048 F       1  UNL1       -0.1675
@<TRIPOS>BOND
     1     1     2    1
     2     2     3    1
     3     2     4    1
     4     4     5    1
     5     5    28    1
     6    28    29   am
     7    29    30    2
     8    29    32    1
     9    32    33    1
    10    33    34    1
    11    33    36    1
    12    36    37    1
    13    36    38    1
    14    36    39    1
    15     5     6    1
    16     6     7   ar
    17     7     8   ar
    18     8    21    1
    19    21    22   ar
    20    22    23   ar
    21    23    24   ar
    22    24    25    1
    23    24    26   ar
    24    26    27   ar
    25     8     9   ar
    26     9    13    1
    27    13    14   ar
    28    14    15   ar
    29    15    16   ar
    30    16    17    1
    31    16    18   ar
    32    18    19   ar
    33    19    20    1
    34     9    10   ar
    35    10    11   ar
    36    11    12    1
    37    12     2    1
    38    11     6   ar
    39    27    21   ar
    40    19    13   ar
    41    28    31    1
    42    34    35    1
@<TRIPOS>MOLECULE
*****
 39 42 0 0 0
SMALL
GASTEIGER

@<TRIPOS>ATOM
      1 C         143.7279  135.8857  155.9347 C.3     1  UNL1        0.0437
      2 C         142.5666  136.8327  156.0044 C.3     1  UNL1        0.1368
      3 C         142.5597  136.5197  154.5374 C.3     1  UNL1        0.0437
      4 C         141.4030  137.6709  155.5648 C.3     1  UNL1        0.0643
      5 C         140.6495  138.4932  156.5678 C.3     1  UNL1        0.1020
      6 C         141.0597  138.4774  158.0105 C.ar    1  UNL1        0.0488
      7 C         140.3062  139.2997  159.0135 C.ar    1  UNL1        0.0034
      8 C         140.7164  139.2839  160.4562 C.ar    1  UNL1        0.0177
      9 C         141.8800  138.4456  160.8960 C.ar    1  UNL1        0.0851
     10 N         142.6335  137.6233  159.8930 N.ar    1  UNL1       -0.2119
     11 C         142.2233  137.6392  158.4502 C.ar    1  UNL1        0.2219
     12 O         142.9767  136.8168  157.4472 O.3     1  UNL1       -0.4676
     13 C         142.2902  138.4298  162.3387 C.ar    1  UNL1        0.0284
     14 C         141.5009  137.6322  163.3341 C.ar    1  UNL1        0.0032
     15 C         141.9111  137.6163  164.7769 C.ar    1  UNL1        0.0115
     16 C         143.1106  138.3981  165.2242 C.ar    1  UNL1        0.0585
     17 CL        143.5207  138.3823  166.6669 Cl      1  UNL1       -0.0822
     18 C         143.8998  139.1958  164.2288 C.ar    1  UNL1        0.0228
     19 C         143.4897  139.2116  162.7861 C.ar    1  UNL1        0.0599
     20 CL        144.2790  140.0092  161.7907 Cl      1  UNL1       -0.0822
     21 C         139.9629  140.1062  161.4592 C.ar    1  UNL1        0.0015
     22 C         138.6742  139.5949  162.0320 C.ar    1  UNL1        0.0009
     23 C         137.9208  140.4173  163.0350 C.ar    1  UNL1        0.0114
     24 C         138.4560  141.7509  163.4653 C.ar    1  UNL1        0.0577
     25 CL        137.7026  142.5733  164.4683 Cl      1  UNL1       -0.0822
     26 C         139.7446  142.2621  162.8925 C.ar    1  UNL1        0.0114
     27 C         140.4981  141.4398  161.8895 C.ar    1  UNL1        0.0009
     28 N         139.4858  139.3314  156.1280 N.am    1  UNL1       -0.3018
     29 C         139.6587  140.8077  155.9263 C.2     1  UNL1        0.2254
     30 O         140.9951  141.4458  156.1644 O.2     1  UNL1       -0.2750
     31 H         138.6087  138.9126  155.9717 H       1  UNL1        0.1497
     32 C         138.4950  141.6459  155.4866 C.3     1  UNL1        0.1231
     33 C         137.5576  142.2217  156.5062 C.3     1  UNL1        0.2151
     34 O         136.3481  142.9906  156.0635 O.3     1  UNL1       -0.3765
     35 H         135.8532  143.2910  156.8418 H       1  UNL1        0.2107
     36 C         137.8297  142.0286  157.9686 C.3     1  UNL1        0.4223
     37 F         138.1018  141.8356  159.4311 F       1  UNL1       -0.1675
     38 F         138.6422  143.2894  157.9839 F       1  UNL1       -0.1675
     39 F         137.0172  140.7679  157.9533 F       1  UNL1       -0.1675
@<TRIPOS>BOND
     1     1     2    1
     2     2     3    1
     3     2     4    1
     4     4     5    1
     5     5    28    1
     6    28    29   am
     7    29    30    2
     8    29    32    1
     9    32    33    1
    10    33    34    1
    11    33    36    1
    12    36    37    1
    13    36    38    1
    14    36    39    1
    15     5     6    1
    16     6     7   ar
    17     7     8   ar
    18     8    21    1
    19    21    22   ar
    20    22    23   ar
    21    23    24   ar
    22    24    25    1
    23    24    26   ar
    24    26    27   ar
    25     8     9   ar
    26     9    13    1
    27    13    14   ar
    28    14    15   ar
    29    15    16   ar
    30    16    17    1
    31    16    18   ar
    32    18    19   ar
    33    19    20    1
    34     9    10   ar
    35    10    11   ar
    36    11    12    1
    37    12     2    1
    38    11     6   ar
    39    27    21   ar
    40    19    13   ar
    41    28    31    1
    42    34    35    1
@<TRIPOS>MOLECULE
*****
 39 42 0 0 0
SMALL
GASTEIGER

@<TRIPOS>ATOM
      1 C         138.4518  137.4413  165.4853 C.3     1  UNL1        0.0437
      2 C         138.8711  138.8374  165.1316 C.3     1  UNL1        0.1368
      3 C         138.4275  139.0498  166.5488 C.3     1  UNL1        0.0437
      4 C         139.1363  140.3073  165.2701 C.3     1  UNL1        0.0643
      5 C         139.6995  141.0799  164.1143 C.3     1  UNL1        0.1020
      6 C         139.9974  140.3828  162.8201 C.ar    1  UNL1        0.0488
      7 C         140.5606  141.1554  161.6643 C.ar    1  UNL1        0.0034
      8 C         140.8585  140.4583  160.3700 C.ar    1  UNL1        0.0177
      9 C         140.5933  138.9884  160.2315 C.ar    1  UNL1        0.0851
     10 N         140.0301  138.2157  161.3873 N.ar    1  UNL1       -0.2119
     11 C         139.7322  138.9129  162.6816 C.ar    1  UNL1        0.2219
     12 O         139.1690  138.1403  163.8374 O.3     1  UNL1       -0.4676
     13 C         140.8912  138.2912  158.9372 C.ar    1  UNL1        0.0284
     14 C         139.8218  138.1574  157.8939 C.ar    1  UNL1        0.0032
     15 C         140.1198  137.4602  156.5996 C.ar    1  UNL1        0.0115
     16 C         141.4871  136.8968  156.3486 C.ar    1  UNL1        0.0585
     17 CL        141.7850  136.1997  155.0544 Cl      1  UNL1       -0.0822
     18 C         142.5565  137.0306  157.3919 C.ar    1  UNL1        0.0228
     19 C         142.2586  137.7278  158.6862 C.ar    1  UNL1        0.0599
     20 CL        143.3280  137.8616  159.7295 Cl      1  UNL1       -0.0822
     21 C         141.4217  141.2309  159.2142 C.ar    1  UNL1        0.0015
     22 C         140.4994  141.8716  158.2197 C.ar    1  UNL1        0.0009
     23 C         141.0626  142.6442  157.0640 C.ar    1  UNL1        0.0114
     24 C         142.5481  142.7762  156.9027 C.ar    1  UNL1        0.0577
     25 CL        143.1113  143.5489  155.7469 Cl      1  UNL1       -0.0822
     26 C         143.4703  142.1356  157.8972 C.ar    1  UNL1        0.0114
     27 C         142.9071  141.3629  159.0529 C.ar    1  UNL1        0.0009
     28 N         139.9648  142.5498  164.2529 N.am    1  UNL1       -0.3018
     29 C         139.0454  143.5422  163.6049 C.2     1  UNL1        0.2254
     30 O         137.8607  143.0648  162.8184 O.2     1  UNL1       -0.2750
     31 H         140.7423  142.8632  164.7691 H       1  UNL1        0.1497
     32 C         139.3107  145.0121  163.7435 C.3     1  UNL1        0.1231
     33 C         140.3439  145.6724  162.8796 C.3     1  UNL1        0.2151
     34 O         140.0023  146.9224  162.1242 O.3     1  UNL1       -0.3765
     35 H         140.7764  147.2168  161.6191 H       1  UNL1        0.2107
     36 C         141.7189  145.0827  162.7712 C.3     1  UNL1        0.4223
     37 F         143.0939  144.4930  162.6628 F       1  UNL1       -0.1675
     38 F         141.3725  144.5228  161.4235 F       1  UNL1       -0.1675
     39 F         142.0653  145.6426  164.1189 F       1  UNL1       -0.1675
@<TRIPOS>BOND
     1     1     2    1
     2     2     3    1
     3     2     4    1
     4     4     5    1
     5     5    28    1
     6    28    29   am
     7    29    30    2
     8    29    32    1
     9    32    33    1
    10    33    34    1
    11    33    36    1
    12    36    37    1
    13    36    38    1
    14    36    39    1
    15     5     6    1
    16     6     7   ar
    17     7     8   ar
    18     8    21    1
    19    21    22   ar
    20    22    23   ar
    21    23    24   ar
    22    24    25    1
    23    24    26   ar
    24    26    27   ar
    25     8     9   ar
    26     9    13    1
    27    13    14   ar
    28    14    15   ar
    29    15    16   ar
    30    16    17    1
    31    16    18   ar
    32    18    19   ar
    33    19    20    1
    34     9    10   ar
    35    10    11   ar
    36    11    12    1
    37    12     2    1
    38    11     6   ar
    39    27    21   ar
    40    19    13   ar
    41    28    31    1
    42    34    35    1
@<TRIPOS>MOLECULE
*****
 39 42 0 0 0
SMALL
GASTEIGER

@<TRIPOS>ATOM
      1 C         136.0245  137.7136  169.5753 C.3     1  UNL1        0.0437
      2 C         137.0902  138.7497  169.7776 C.3     1  UNL1        0.1368
      3 C         136.5274  138.6802  171.1664 C.3     1  UNL1        0.0437
      4 C         137.9604  139.7616  170.4623 C.3     1  UNL1        0.0643
      5 C         139.0232  140.4833  169.6880 C.3     1  UNL1        0.1020
      6 C         139.2159  140.1930  168.2290 C.ar    1  UNL1        0.0488
      7 C         140.2788  140.9146  167.4547 C.ar    1  UNL1        0.0034
      8 C         140.4715  140.6243  165.9958 C.ar    1  UNL1        0.0177
      9 C         139.6013  139.6123  165.3111 C.ar    1  UNL1        0.0851
     10 N         138.5384  138.8907  166.0854 N.ar    1  UNL1       -0.2119
     11 C         138.3458  139.1811  167.5444 C.ar    1  UNL1        0.2219
     12 O         137.2829  138.4594  168.3187 O.3     1  UNL1       -0.4676
     13 C         139.7940  139.3221  163.8521 C.ar    1  UNL1        0.0284
     14 C         139.1352  140.1900  162.8213 C.ar    1  UNL1        0.0032
     15 C         139.3279  139.8997  161.3623 C.ar    1  UNL1        0.0115
     16 C         140.1794  138.7414  160.9342 C.ar    1  UNL1        0.0585
     17 CL        140.3721  138.4511  159.4752 Cl      1  UNL1       -0.0822
     18 C         140.8383  137.8735  161.9650 C.ar    1  UNL1        0.0228
     19 C         140.6456  138.1638  163.4239 C.ar    1  UNL1        0.0599
     20 CL        141.3044  137.2958  164.4548 Cl      1  UNL1       -0.0822
     21 C         141.5344  141.3459  165.2215 C.ar    1  UNL1        0.0015
     22 C         141.2468  142.6944  164.6305 C.ar    1  UNL1        0.0009
     23 C         142.3097  143.4160  163.8562 C.ar    1  UNL1        0.0114
     24 C         143.6601  142.7892  163.6728 C.ar    1  UNL1        0.0577
     25 CL        144.7230  143.5108  162.8985 Cl      1  UNL1       -0.0822
     26 C         143.9476  141.4408  164.2638 C.ar    1  UNL1        0.0114
     27 C         142.8847  140.7192  165.0381 C.ar    1  UNL1        0.0009
     28 N         139.8935  141.4952  170.3727 N.am    1  UNL1       -0.3018
     29 C         141.2788  141.1205  170.8088 C.2     1  UNL1        0.2254
     30 O         141.7941  139.7339  170.5603 O.2     1  UNL1       -0.2750
     31 H         139.5553  142.4053  170.5358 H       1  UNL1        0.1497
     32 C         142.1490  142.1325  171.4936 C.3     1  UNL1        0.1231
     33 C         142.9864  143.0745  170.6803 C.3     1  UNL1        0.2151
     34 O         143.4812  144.3535  171.2879 O.3     1  UNL1       -0.3765
     35 H         144.0032  144.8421  170.6324 H       1  UNL1        0.2107
     36 C         143.3288  142.7374  169.2593 C.3     1  UNL1        0.4223
     37 F         143.6713  142.4004  167.8383 F       1  UNL1       -0.1675
     38 F         141.9812  143.2268  168.8185 F       1  UNL1       -0.1675
     39 F         144.6764  142.2481  169.7002 F       1  UNL1       -0.1675
@<TRIPOS>BOND
     1     1     2    1
     2     2     3    1
     3     2     4    1
     4     4     5    1
     5     5    28    1
     6    28    29   am
     7    29    30    2
     8    29    32    1
     9    32    33    1
    10    33    34    1
    11    33    36    1
    12    36    37    1
    13    36    38    1
    14    36    39    1
    15     5     6    1
    16     6     7   ar
    17     7     8   ar
    18     8    21    1
    19    21    22   ar
    20    22    23   ar
    21    23    24   ar
    22    24    25    1
    23    24    26   ar
    24    26    27   ar
    25     8     9   ar
    26     9    13    1
    27    13    14   ar
    28    14    15   ar
    29    15    16   ar
    30    16    17    1
    31    16    18   ar
    32    18    19   ar
    33    19    20    1
    34     9    10   ar
    35    10    11   ar
    36    11    12    1
    37    12     2    1
    38    11     6   ar
    39    27    21   ar
    40    19    13   ar
    41    28    31    1
    42    34    35    1
