@<TRIPOS>MOLECULE
*****
 35 39 0 0 0
SMALL
GASTEIGER

@<TRIPOS>ATOM
      1 C         141.3394  138.8471  164.9519 C.ar    1  UNL1        0.1879
      2 N         140.8057  137.5766  164.3593 N.ar    1  UNL1       -0.1271
      3 N         141.2504  137.5100  162.9283 N.ar    1  UNL1       -0.1330
      4 C         142.0589  138.7393  162.6365 C.ar    1  UNL1        0.1468
      5 N         142.1139  139.5656  163.8871 N.ar    1  UNL1       -0.2739
      6 C         142.8195  140.8798  164.0452 C.ar    1  UNL1        0.0939
      7 C         142.0278  142.1514  164.1257 C.ar    1  UNL1        0.0199
      8 C         142.7334  143.4655  164.2838 C.ar    1  UNL1        0.0016
      9 C         144.2308  143.5083  164.3614 C.ar    1  UNL1        0.0024
     10 C         145.0225  142.2368  164.2810 C.ar    1  UNL1        0.0311
     11 C         144.3168  140.9226  164.1229 C.ar    1  UNL1        0.1562
     12 F         145.1087  139.6511  164.0425 F       1  UNL1       -0.2026
     13 C         140.7248  140.2554  169.1815 C.ar    1  UNL1        0.1576
     14 C         139.5523  140.1326  168.2540 C.ar    1  UNL1        0.0402
     15 C         139.7572  139.6632  166.8442 C.ar    1  UNL1        0.0254
     16 C         141.1345  139.3165  166.3618 C.ar    1  UNL1        0.1176
     17 N         142.3070  139.4393  167.2892 N.ar    1  UNL1       -0.2376
     18 C         142.1021  139.9087  168.6991 C.ar    1  UNL1        0.1357
     19 O         140.5199  140.7248  170.5913 O.3     1  UNL1       -0.4739
     20 C         140.3570  143.2454  169.9831 C.3     1  UNL1        0.0512
     21 C         140.7533  142.1640  170.9440 C.3     1  UNL1        0.2056
     22 C         142.6999  139.0821  161.3244 C.3     1  UNL1        0.0624
     23 C         144.1057  139.0926  160.8014 C.3     1  UNL1        0.0272
     24 C         143.6064  139.5669  159.4687 C.3     1  UNL1        0.0728
     25 C         142.2005  139.5564  159.9919 C.3     1  UNL1        0.0272
     26 N         144.2473  139.9097  158.1567 N.am    1  UNL1       -0.3012
     27 C         144.7762  141.2931  157.9191 C.2     1  UNL1        0.2635
     28 O         144.6642  142.3337  158.9937 O.2     1  UNL1       -0.2685
     29 H         144.3208  139.2267  157.4514 H       1  UNL1        0.1497
     30 C         145.4171  141.6360  156.6070 C.ar    1  UNL1        0.1345
     31 C         146.7269  142.3667  156.5803 C.ar    1  UNL1        0.0238
     32 C         147.3678  142.7096  155.2681 C.ar    1  UNL1        0.0033
     33 C         146.6989  142.3218  153.9827 C.ar    1  UNL1        0.0207
     34 C         145.3892  141.5911  154.0094 C.ar    1  UNL1        0.0990
     35 N         144.7483  141.2482  155.3216 N.ar    1  UNL1       -0.2393
@<TRIPOS>BOND
     1    20    21    1
     2    21    19    1
     3    19    13    1
     4    13    14   ar
     5    14    15   ar
     6    15    16   ar
     7    16     1    1
     8     1     2   ar
     9     2     3   ar
    10     3     4   ar
    11    22     4    1
    12    22    23    1
    13    23    24    1
    14    24    26    1
    15    26    27   am
    16    27    28    2
    17    27    30    1
    18    30    31   ar
    19    31    32   ar
    20    32    33   ar
    21    33    34   ar
    22    34    35   ar
    23    24    25    1
    24     4     5   ar
    25     5     6    1
    26     6     7   ar
    27     7     8   ar
    28     8     9   ar
    29     9    10   ar
    30    10    11   ar
    31    11    12    1
    32    16    17   ar
    33    17    18   ar
    34    18    13   ar
    35     5     1   ar
    36    11     6   ar
    37    25    22    1
    38    35    30   ar
    39    26    29    1
@<TRIPOS>MOLECULE
*****
 35 39 0 0 0
SMALL
GASTEIGER

@<TRIPOS>ATOM
      1 C         139.8549  139.0564  164.9727 C.ar    1  UNL1        0.1879
      2 N         139.8876  137.6352  164.4942 N.ar    1  UNL1       -0.1271
      3 N         139.4497  137.6188  163.0596 N.ar    1  UNL1       -0.1330
      4 C         139.1464  139.0300  162.6515 C.ar    1  UNL1        0.1468
      5 N         139.3969  139.9185  163.8338 N.ar    1  UNL1       -0.2739
      6 C         139.2202  141.4076  163.8708 C.ar    1  UNL1        0.0939
      7 C         137.9242  141.9977  164.3423 C.ar    1  UNL1        0.0199
      8 C         137.7475  143.4868  164.3793 C.ar    1  UNL1        0.0016
      9 C         138.8668  144.3858  163.9448 C.ar    1  UNL1        0.0024
     10 C         140.1628  143.7958  163.4733 C.ar    1  UNL1        0.0311
     11 C         140.3394  142.3067  163.4364 C.ar    1  UNL1        0.1562
     12 F         141.6355  141.7167  162.9649 F       1  UNL1       -0.2026
     13 C         140.9405  140.4834  169.1001 C.ar    1  UNL1        0.1576
     14 C         139.5018  140.2655  168.7361 C.ar    1  UNL1        0.0402
     15 C         139.1399  139.7898  167.3603 C.ar    1  UNL1        0.0254
     16 C         140.2168  139.5321  166.3485 C.ar    1  UNL1        0.1176
     17 N         141.6555  139.7500  166.7124 N.ar    1  UNL1       -0.2376
     18 C         142.0174  140.2257  168.0882 C.ar    1  UNL1        0.1357
     19 O         141.3024  140.9591  170.4759 O.3     1  UNL1       -0.4739
     20 C         140.7893  143.4545  169.9665 C.3     1  UNL1        0.0512
     21 C         141.5645  142.4154  170.7211 C.3     1  UNL1        0.2056
     22 C         138.6754  139.4747  161.2986 C.3     1  UNL1        0.0624
     23 C         137.3537  139.8785  160.7155 C.3     1  UNL1        0.0272
     24 C         138.0093  140.1036  159.3852 C.3     1  UNL1        0.0728
     25 C         139.3311  139.6998  159.9684 C.3     1  UNL1        0.0272
     26 N         137.5384  140.5483  158.0323 N.am    1  UNL1       -0.3012
     27 C         137.7182  141.9755  157.6074 C.2     1  UNL1        0.2635
     28 O         138.3690  142.9581  158.5353 O.2     1  UNL1       -0.2685
     29 H         137.1112  139.9034  157.4233 H       1  UNL1        0.1497
     30 C         137.2473  142.4203  156.2544 C.ar    1  UNL1        0.1345
     31 C         136.5346  141.4555  155.3538 C.ar    1  UNL1        0.0238
     32 C         136.0636  141.9003  154.0008 C.ar    1  UNL1        0.0033
     33 C         136.3054  143.3099  153.5485 C.ar    1  UNL1        0.0207
     34 C         137.0181  144.2747  154.4492 C.ar    1  UNL1        0.0990
     35 N         137.4891  143.8299  155.8022 N.ar    1  UNL1       -0.2393
@<TRIPOS>BOND
     1    20    21    1
     2    21    19    1
     3    19    13    1
     4    13    14   ar
     5    14    15   ar
     6    15    16   ar
     7    16     1    1
     8     1     2   ar
     9     2     3   ar
    10     3     4   ar
    11    22     4    1
    12    22    23    1
    13    23    24    1
    14    24    26    1
    15    26    27   am
    16    27    28    2
    17    27    30    1
    18    30    31   ar
    19    31    32   ar
    20    32    33   ar
    21    33    34   ar
    22    34    35   ar
    23    24    25    1
    24     4     5   ar
    25     5     6    1
    26     6     7   ar
    27     7     8   ar
    28     8     9   ar
    29     9    10   ar
    30    10    11   ar
    31    11    12    1
    32    16    17   ar
    33    17    18   ar
    34    18    13   ar
    35     5     1   ar
    36    11     6   ar
    37    25    22    1
    38    35    30   ar
    39    26    29    1
@<TRIPOS>MOLECULE
*****
 35 39 0 0 0
SMALL
GASTEIGER

@<TRIPOS>ATOM
      1 C         140.0110  142.4948  165.6103 C.ar    1  UNL1        0.1879
      2 N         139.8060  143.5283  166.6779 N.ar    1  UNL1       -0.1271
      3 N         140.4194  143.0128  167.9460 N.ar    1  UNL1       -0.1330
      4 C         141.0034  141.6606  167.6621 C.ar    1  UNL1        0.1468
      5 N         140.7510  141.3405  166.2186 N.ar    1  UNL1       -0.2739
      6 C         141.1658  140.0863  165.5080 C.ar    1  UNL1        0.0939
      7 C         142.5325  139.9870  164.8978 C.ar    1  UNL1        0.0199
      8 C         142.9474  138.7327  164.1873 C.ar    1  UNL1        0.0016
      9 C         141.9955  137.5778  164.0870 C.ar    1  UNL1        0.0024
     10 C         140.6288  137.6771  164.6972 C.ar    1  UNL1        0.0311
     11 C         140.2140  138.9313  165.4077 C.ar    1  UNL1        0.1562
     12 F         138.8473  139.0305  166.0179 F       1  UNL1       -0.2026
     13 C         138.6454  142.8029  161.3336 C.ar    1  UNL1        0.1576
     14 C         137.6363  142.6699  162.4354 C.ar    1  UNL1        0.0402
     15 C         138.0915  142.5671  163.8609 C.ar    1  UNL1        0.0254
     16 C         139.5558  142.5975  164.1847 C.ar    1  UNL1        0.1176
     17 N         140.5649  142.7305  163.0829 N.ar    1  UNL1       -0.2376
     18 C         140.1097  142.8332  161.6574 C.ar    1  UNL1        0.1357
     19 O         138.1902  142.9056  159.9080 O.3     1  UNL1       -0.4739
     20 C         138.4151  140.3387  159.5761 C.3     1  UNL1        0.0512
     21 C         138.3000  141.7181  158.9982 C.3     1  UNL1        0.2056
     22 C         141.7150  140.7827  168.6485 C.3     1  UNL1        0.0624
     23 C         143.0742  140.7850  169.2829 C.3     1  UNL1        0.0272
     24 C         142.7213  139.5412  170.0435 C.3     1  UNL1        0.0728
     25 C         141.3620  139.5390  169.4091 C.3     1  UNL1        0.0272
     26 N         143.4327  138.6633  171.0299 N.am    1  UNL1       -0.3012
     27 C         144.1414  137.4278  170.5595 C.2     1  UNL1        0.2635
     28 O         144.1387  137.0702  169.1027 O.2     1  UNL1       -0.2685
     29 H         143.4345  138.8979  171.9860 H       1  UNL1        0.1497
     30 C         144.8529  136.5498  171.5458 C.ar    1  UNL1        0.1345
     31 C         145.8840  137.1358  172.4643 C.ar    1  UNL1        0.0238
     32 C         146.5955  136.2577  173.4507 C.ar    1  UNL1        0.0033
     33 C         146.2759  134.7937  173.5186 C.ar    1  UNL1        0.0207
     34 C         145.2448  134.2077  172.6002 C.ar    1  UNL1        0.0990
     35 N         144.5333  135.0858  171.6138 N.ar    1  UNL1       -0.2393
@<TRIPOS>BOND
     1    20    21    1
     2    21    19    1
     3    19    13    1
     4    13    14   ar
     5    14    15   ar
     6    15    16   ar
     7    16     1    1
     8     1     2   ar
     9     2     3   ar
    10     3     4   ar
    11    22     4    1
    12    22    23    1
    13    23    24    1
    14    24    26    1
    15    26    27   am
    16    27    28    2
    17    27    30    1
    18    30    31   ar
    19    31    32   ar
    20    32    33   ar
    21    33    34   ar
    22    34    35   ar
    23    24    25    1
    24     4     5   ar
    25     5     6    1
    26     6     7   ar
    27     7     8   ar
    28     8     9   ar
    29     9    10   ar
    30    10    11   ar
    31    11    12    1
    32    16    17   ar
    33    17    18   ar
    34    18    13   ar
    35     5     1   ar
    36    11     6   ar
    37    25    22    1
    38    35    30   ar
    39    26    29    1
@<TRIPOS>MOLECULE
*****
 35 39 0 0 0
SMALL
GASTEIGER

@<TRIPOS>ATOM
      1 C         140.4616  142.3041  163.5927 C.ar    1  UNL1        0.1879
      2 N         139.4161  142.9607  162.7408 N.ar    1  UNL1       -0.1271
      3 N         140.0119  143.2126  161.3875 N.ar    1  UNL1       -0.1330
      4 C         141.4257  142.7117  161.4029 C.ar    1  UNL1        0.1468
      5 N         141.7036  142.1502  162.7658 N.ar    1  UNL1       -0.2739
      6 C         142.9966  141.5417  163.2218 C.ar    1  UNL1        0.0939
      7 C         143.1356  140.0504  163.3048 C.ar    1  UNL1        0.0199
      8 C         144.4286  139.4419  163.7608 C.ar    1  UNL1        0.0016
      9 C         145.5826  140.3246  164.1337 C.ar    1  UNL1        0.0024
     10 C         145.4436  141.8158  164.0507 C.ar    1  UNL1        0.0311
     11 C         144.1506  142.4243  163.5947 C.ar    1  UNL1        0.1562
     12 F         144.0117  143.9156  163.5117 F       1  UNL1       -0.2026
     13 C         139.9603  141.0213  167.8768 C.ar    1  UNL1        0.1576
     14 C         139.5536  140.0997  166.7654 C.ar    1  UNL1        0.0402
     15 C         139.7207  140.5273  165.3374 C.ar    1  UNL1        0.0254
     16 C         140.2945  141.8765  165.0207 C.ar    1  UNL1        0.1176
     17 N         140.7012  142.7981  166.1321 N.ar    1  UNL1       -0.2376
     18 C         140.5341  142.3705  167.5601 C.ar    1  UNL1        0.1357
     19 O         139.7932  140.5937  169.3048 O.3     1  UNL1       -0.4739
     20 C         142.1368  139.4742  169.3667 C.3     1  UNL1        0.0512
     21 C         140.9762  140.0988  170.0828 C.3     1  UNL1        0.2056
     22 C         142.3919  142.7632  160.2567 C.3     1  UNL1        0.0624
     23 C         142.2651  142.7701  158.7622 C.3     1  UNL1        0.0272
     24 C         143.7584  142.8360  158.6358 C.3     1  UNL1        0.0728
     25 C         143.8851  142.8291  160.1305 C.3     1  UNL1        0.0272
     26 N         144.7247  142.8876  157.4897 N.am    1  UNL1       -0.3012
     27 C         145.2847  141.6165  156.9232 C.2     1  UNL1        0.2635
     28 O         144.8784  140.2941  157.5029 O.2     1  UNL1       -0.2685
     29 H         144.9913  143.7555  157.1093 H       1  UNL1        0.1497
     30 C         146.2510  141.6680  155.7771 C.ar    1  UNL1        0.1345
     31 C         147.6643  142.1149  156.0071 C.ar    1  UNL1        0.0238
     32 C         148.6306  142.1663  154.8609 C.ar    1  UNL1        0.0033
     33 C         148.1836  141.7708  153.4848 C.ar    1  UNL1        0.0207
     34 C         146.7703  141.3238  153.2548 C.ar    1  UNL1        0.0990
     35 N         145.8040  141.2724  154.4010 N.ar    1  UNL1       -0.2393
@<TRIPOS>BOND
     1    20    21    1
     2    21    19    1
     3    19    13    1
     4    13    14   ar
     5    14    15   ar
     6    15    16   ar
     7    16     1    1
     8     1     2   ar
     9     2     3   ar
    10     3     4   ar
    11    22     4    1
    12    22    23    1
    13    23    24    1
    14    24    26    1
    15    26    27   am
    16    27    28    2
    17    27    30    1
    18    30    31   ar
    19    31    32   ar
    20    32    33   ar
    21    33    34   ar
    22    34    35   ar
    23    24    25    1
    24     4     5   ar
    25     5     6    1
    26     6     7   ar
    27     7     8   ar
    28     8     9   ar
    29     9    10   ar
    30    10    11   ar
    31    11    12    1
    32    16    17   ar
    33    17    18   ar
    34    18    13   ar
    35     5     1   ar
    36    11     6   ar
    37    25    22    1
    38    35    30   ar
    39    26    29    1
@<TRIPOS>MOLECULE
*****
 35 39 0 0 0
SMALL
GASTEIGER

@<TRIPOS>ATOM
      1 C         142.0012  139.8653  164.4213 C.ar    1  UNL1        0.1879
      2 N         142.6698  138.6683  163.8131 N.ar    1  UNL1       -0.1271
      3 N         142.0330  138.4091  162.4799 N.ar    1  UNL1       -0.1330
      4 C         140.9708  139.4460  162.2642 C.ar    1  UNL1        0.1468
      5 N         140.9512  140.3460  163.4641 N.ar    1  UNL1       -0.2739
      6 C         140.0412  141.5204  163.6704 C.ar    1  UNL1        0.0939
      7 C         138.6611  141.3125  164.2202 C.ar    1  UNL1        0.0199
      8 C         137.7511  142.4869  164.4266 C.ar    1  UNL1        0.0016
      9 C         138.2212  143.8693  164.0832 C.ar    1  UNL1        0.0024
     10 C         139.6012  144.0773  163.5334 C.ar    1  UNL1        0.0311
     11 C         140.5112  142.9028  163.3271 C.ar    1  UNL1        0.1562
     12 F         141.8912  143.1109  162.7773 F       1  UNL1       -0.2026
     13 C         142.9745  141.6934  168.4164 C.ar    1  UNL1        0.1576
     14 C         143.3408  142.4137  167.1528 C.ar    1  UNL1        0.0402
     15 C         143.0164  141.8044  165.8211 C.ar    1  UNL1        0.0254
     16 C         142.3257  140.4747  165.7530 C.ar    1  UNL1        0.1176
     17 N         141.9593  139.7543  167.0167 N.ar    1  UNL1       -0.2376
     18 C         142.2838  140.3637  168.3484 C.ar    1  UNL1        0.1357
     19 O         143.2990  142.3028  169.7481 O.3     1  UNL1       -0.4739
     20 C         141.0289  143.5570  169.9018 C.3     1  UNL1        0.0512
     21 C         142.2116  142.9244  170.5734 C.3     1  UNL1        0.2056
     22 C         140.0840  139.5626  161.0601 C.3     1  UNL1        0.0624
     23 C         140.2977  139.8989  159.6140 C.3     1  UNL1        0.0272
     24 C         138.8298  139.7273  159.3572 C.3     1  UNL1        0.0728
     25 C         138.6162  139.3910  160.8034 C.3     1  UNL1        0.0272
     26 N         137.9429  139.8438  158.1531 N.am    1  UNL1       -0.3012
     27 C         137.5732  141.1971  157.6221 C.2     1  UNL1        0.2635
     28 O         138.0904  142.4338  158.2952 O.2     1  UNL1       -0.2685
     29 H         137.6035  139.0321  157.7114 H       1  UNL1        0.1497
     30 C         136.6863  141.3137  156.4181 C.ar    1  UNL1        0.1345
     31 C         136.9158  142.4105  155.4209 C.ar    1  UNL1        0.0238
     32 C         136.0288  142.5271  154.2167 C.ar    1  UNL1        0.0033
     33 C         134.9124  141.5468  154.0099 C.ar    1  UNL1        0.0207
     34 C         134.6829  140.4500  155.0070 C.ar    1  UNL1        0.0990
     35 N         135.5699  140.3335  156.2112 N.ar    1  UNL1       -0.2393
@<TRIPOS>BOND
     1    20    21    1
     2    21    19    1
     3    19    13    1
     4    13    14   ar
     5    14    15   ar
     6    15    16   ar
     7    16     1    1
     8     1     2   ar
     9     2     3   ar
    10     3     4   ar
    11    22     4    1
    12    22    23    1
    13    23    24    1
    14    24    26    1
    15    26    27   am
    16    27    28    2
    17    27    30    1
    18    30    31   ar
    19    31    32   ar
    20    32    33   ar
    21    33    34   ar
    22    34    35   ar
    23    24    25    1
    24     4     5   ar
    25     5     6    1
    26     6     7   ar
    27     7     8   ar
    28     8     9   ar
    29     9    10   ar
    30    10    11   ar
    31    11    12    1
    32    16    17   ar
    33    17    18   ar
    34    18    13   ar
    35     5     1   ar
    36    11     6   ar
    37    25    22    1
    38    35    30   ar
    39    26    29    1
@<TRIPOS>MOLECULE
*****
 35 39 0 0 0
SMALL
GASTEIGER

@<TRIPOS>ATOM
      1 C         143.7728  141.2440  164.4628 C.ar    1  UNL1        0.1879
      2 N         145.0709  140.7193  163.9248 N.ar    1  UNL1       -0.1271
      3 N         145.1341  141.0493  162.4629 N.ar    1  UNL1       -0.1330
      4 C         143.8749  141.7780  162.0974 C.ar    1  UNL1        0.1468
      5 N         143.0337  141.8984  163.3335 N.ar    1  UNL1       -0.2739
      6 C         141.6892  142.5574  163.4242 C.ar    1  UNL1        0.0939
      7 C         140.4455  141.7650  163.1495 C.ar    1  UNL1        0.0199
      8 C         139.1010  142.4240  163.2402 C.ar    1  UNL1        0.0016
      9 C         139.0003  143.8753  163.6056 C.ar    1  UNL1        0.0024
     10 C         140.2440  144.6676  163.8802 C.ar    1  UNL1        0.0311
     11 C         141.5884  144.0086  163.7895 C.ar    1  UNL1        0.1562
     12 F         142.8321  144.8011  164.0643 F       1  UNL1       -0.2026
     13 C         142.3464  140.9134  168.7180 C.ar    1  UNL1        0.1576
     14 C         142.3408  139.7052  167.8290 C.ar    1  UNL1        0.0402
     15 C         142.8162  139.8155  166.4107 C.ar    1  UNL1        0.0254
     16 C         143.2974  141.1338  165.8812 C.ar    1  UNL1        0.1176
     17 N         143.3030  142.3420  166.7702 N.ar    1  UNL1       -0.2376
     18 C         142.8275  142.2318  168.1885 C.ar    1  UNL1        0.1357
     19 O         141.8710  140.8032  170.1363 O.3     1  UNL1       -0.4739
     20 C         139.2957  140.5081  169.9613 C.3     1  UNL1        0.0512
     21 C         140.6281  140.0251  170.4524 C.3     1  UNL1        0.2056
     22 C         143.5195  142.2955  160.7352 C.3     1  UNL1        0.0624
     23 C         142.2448  142.6891  160.0494 C.3     1  UNL1        0.0272
     24 C         143.0168  143.0274  158.8086 C.3     1  UNL1        0.0728
     25 C         144.2915  142.6338  159.4944 C.3     1  UNL1        0.0272
     26 N         142.6614  143.5449  157.4463 N.am    1  UNL1       -0.3012
     27 C         142.2445  144.9753  157.2727 C.2     1  UNL1        0.2635
     28 O         142.1830  145.8881  158.4613 O.2     1  UNL1       -0.2685
     29 H         142.7018  142.9458  156.6662 H       1  UNL1        0.1497
     30 C         141.8891  145.4929  155.9104 C.ar    1  UNL1        0.1345
     31 C         140.7081  146.4014  155.7379 C.ar    1  UNL1        0.0238
     32 C         140.3527  146.9190  154.3755 C.ar    1  UNL1        0.0033
     33 C         141.1783  146.5280  153.1858 C.ar    1  UNL1        0.0207
     34 C         142.3594  145.6195  153.3583 C.ar    1  UNL1        0.0990
     35 N         142.7148  145.1019  154.7207 N.ar    1  UNL1       -0.2393
@<TRIPOS>BOND
     1    20    21    1
     2    21    19    1
     3    19    13    1
     4    13    14   ar
     5    14    15   ar
     6    15    16   ar
     7    16     1    1
     8     1     2   ar
     9     2     3   ar
    10     3     4   ar
    11    22     4    1
    12    22    23    1
    13    23    24    1
    14    24    26    1
    15    26    27   am
    16    27    28    2
    17    27    30    1
    18    30    31   ar
    19    31    32   ar
    20    32    33   ar
    21    33    34   ar
    22    34    35   ar
    23    24    25    1
    24     4     5   ar
    25     5     6    1
    26     6     7   ar
    27     7     8   ar
    28     8     9   ar
    29     9    10   ar
    30    10    11   ar
    31    11    12    1
    32    16    17   ar
    33    17    18   ar
    34    18    13   ar
    35     5     1   ar
    36    11     6   ar
    37    25    22    1
    38    35    30   ar
    39    26    29    1
@<TRIPOS>MOLECULE
*****
 35 39 0 0 0
SMALL
GASTEIGER

@<TRIPOS>ATOM
      1 C         143.7119  140.5224  164.8119 C.ar    1  UNL1        0.1879
      2 N         145.0150  141.0569  164.2957 N.ar    1  UNL1       -0.1271
      3 N         145.1381  140.6649  162.8531 N.ar    1  UNL1       -0.1330
      4 C         143.9111  139.8880  162.4776 C.ar    1  UNL1        0.1468
      5 N         143.0297  139.7999  163.6882 N.ar    1  UNL1       -0.2739
      6 C         141.6996  139.1105  163.7621 C.ar    1  UNL1        0.0939
      7 C         141.5865  137.7674  164.4207 C.ar    1  UNL1        0.0199
      8 C         140.2564  137.0780  164.4945 C.ar    1  UNL1        0.0016
      9 C         139.0394  137.7314  163.9099 C.ar    1  UNL1        0.0024
     10 C         139.1525  139.0744  163.2514 C.ar    1  UNL1        0.0311
     11 C         140.4826  139.7639  163.1775 C.ar    1  UNL1        0.1562
     12 F         140.5956  141.1069  162.5189 F       1  UNL1       -0.2026
     13 C         142.1277  141.0019  168.9964 C.ar    1  UNL1        0.1576
     14 C         142.2814  142.2025  168.1104 C.ar    1  UNL1        0.0402
     15 C         142.8095  142.0427  166.7156 C.ar    1  UNL1        0.0254
     16 C         143.1839  140.6822  166.2067 C.ar    1  UNL1        0.1176
     17 N         143.0302  139.4817  167.0926 N.ar    1  UNL1       -0.2376
     18 C         142.5021  139.6415  168.4875 C.ar    1  UNL1        0.1357
     19 O         141.5997  141.1618  170.3912 O.3     1  UNL1       -0.4739
     20 C         139.1607  140.4723  169.8201 C.3     1  UNL1        0.0512
     21 C         140.3092  140.5059  170.7844 C.3     1  UNL1        0.2056
     22 C         143.6171  139.3020  161.1285 C.3     1  UNL1        0.0624
     23 C         143.3090  137.9274  160.6135 C.3     1  UNL1        0.0272
     24 C         143.2013  138.4734  159.2205 C.3     1  UNL1        0.0728
     25 C         143.5095  139.8481  159.7356 C.3     1  UNL1        0.0272
     26 N         142.9073  137.8875  157.8713 N.am    1  UNL1       -0.3012
     27 C         141.4875  137.7443  157.4091 C.2     1  UNL1        0.2635
     28 O         140.3617  138.1870  158.2960 O.2     1  UNL1       -0.2685
     29 H         143.6462  137.5969  157.2892 H       1  UNL1        0.1497
     30 C         141.1934  137.1584  156.0600 C.ar    1  UNL1        0.1345
     31 C         142.2087  136.2854  155.3839 C.ar    1  UNL1        0.0238
     32 C         141.9146  135.6995  154.0347 C.ar    1  UNL1        0.0033
     33 C         140.6052  135.9866  153.3616 C.ar    1  UNL1        0.0207
     34 C         139.5899  136.8597  154.0376 C.ar    1  UNL1        0.0990
     35 N         139.8841  137.4456  155.3868 N.ar    1  UNL1       -0.2393
@<TRIPOS>BOND
     1    20    21    1
     2    21    19    1
     3    19    13    1
     4    13    14   ar
     5    14    15   ar
     6    15    16   ar
     7    16     1    1
     8     1     2   ar
     9     2     3   ar
    10     3     4   ar
    11    22     4    1
    12    22    23    1
    13    23    24    1
    14    24    26    1
    15    26    27   am
    16    27    28    2
    17    27    30    1
    18    30    31   ar
    19    31    32   ar
    20    32    33   ar
    21    33    34   ar
    22    34    35   ar
    23    24    25    1
    24     4     5   ar
    25     5     6    1
    26     6     7   ar
    27     7     8   ar
    28     8     9   ar
    29     9    10   ar
    30    10    11   ar
    31    11    12    1
    32    16    17   ar
    33    17    18   ar
    34    18    13   ar
    35     5     1   ar
    36    11     6   ar
    37    25    22    1
    38    35    30   ar
    39    26    29    1
@<TRIPOS>MOLECULE
*****
 35 39 0 0 0
SMALL
GASTEIGER

@<TRIPOS>ATOM
      1 C         140.7466  142.9961  165.7713 C.ar    1  UNL1        0.1879
      2 N         139.8504  143.4914  166.8674 N.ar    1  UNL1       -0.1271
      3 N         140.2391  142.7916  168.1359 N.ar    1  UNL1       -0.1330
      4 C         141.3756  141.8637  167.8238 C.ar    1  UNL1        0.1468
      5 N         141.6892  141.9901  166.3624 N.ar    1  UNL1       -0.2739
      6 C         142.7579  141.2419  165.6220 C.ar    1  UNL1        0.0939
      7 C         143.9440  141.9769  165.0717 C.ar    1  UNL1        0.0199
      8 C         145.0127  141.2287  164.3314 C.ar    1  UNL1        0.0016
      9 C         144.8953  139.7454  164.1414 C.ar    1  UNL1        0.0024
     10 C         143.7092  139.0104  164.6917 C.ar    1  UNL1        0.0311
     11 C         142.6405  139.7587  165.4320 C.ar    1  UNL1        0.1562
     12 F         141.4544  139.0235  165.9823 F       1  UNL1       -0.2026
     13 C         140.6281  144.2994  161.4658 C.ar    1  UNL1        0.1576
     14 C         140.8394  145.3133  162.5507 C.ar    1  UNL1        0.0402
     15 C         140.8788  144.8789  163.9859 C.ar    1  UNL1        0.0254
     16 C         140.7071  143.4305  164.3361 C.ar    1  UNL1        0.1176
     17 N         140.4958  142.4166  163.2511 N.ar    1  UNL1       -0.2376
     18 C         140.4564  142.8510  161.8160 C.ar    1  UNL1        0.1357
     19 O         140.5886  144.7338  160.0306 O.3     1  UNL1       -0.4739
     20 C         141.4340  143.2425  158.0783 C.3     1  UNL1        0.0512
     21 C         141.6827  144.3203  159.0914 C.3     1  UNL1        0.2056
     22 C         142.0755  140.9668  168.8013 C.3     1  UNL1        0.0624
     23 C         143.3033  141.0820  169.6553 C.3     1  UNL1        0.0272
     24 C         143.0654  139.6984  170.1839 C.3     1  UNL1        0.0728
     25 C         141.8376  139.5833  169.3298 C.3     1  UNL1        0.0272
     26 N         143.7653  138.8015  171.1614 N.am    1  UNL1       -0.3012
     27 C         144.2556  137.4531  170.7239 C.2     1  UNL1        0.2635
     28 O         144.0461  137.0017  169.3089 O.2     1  UNL1       -0.2685
     29 H         143.9029  139.0979  172.0901 H       1  UNL1        0.1497
     30 C         144.9556  136.5562  171.7014 C.ar    1  UNL1        0.1345
     31 C         145.9956  137.1191  172.6243 C.ar    1  UNL1        0.0238
     32 C         146.6955  136.2220  173.6018 C.ar    1  UNL1        0.0033
     33 C         146.3554  134.7621  173.6565 C.ar    1  UNL1        0.0207
     34 C         145.3154  134.1992  172.7337 C.ar    1  UNL1        0.0990
     35 N         144.6155  135.0963  171.7561 N.ar    1  UNL1       -0.2393
@<TRIPOS>BOND
     1    20    21    1
     2    21    19    1
     3    19    13    1
     4    13    14   ar
     5    14    15   ar
     6    15    16   ar
     7    16     1    1
     8     1     2   ar
     9     2     3   ar
    10     3     4   ar
    11    22     4    1
    12    22    23    1
    13    23    24    1
    14    24    26    1
    15    26    27   am
    16    27    28    2
    17    27    30    1
    18    30    31   ar
    19    31    32   ar
    20    32    33   ar
    21    33    34   ar
    22    34    35   ar
    23    24    25    1
    24     4     5   ar
    25     5     6    1
    26     6     7   ar
    27     7     8   ar
    28     8     9   ar
    29     9    10   ar
    30    10    11   ar
    31    11    12    1
    32    16    17   ar
    33    17    18   ar
    34    18    13   ar
    35     5     1   ar
    36    11     6   ar
    37    25    22    1
    38    35    30   ar
    39    26    29    1
@<TRIPOS>MOLECULE
*****
 35 39 0 0 0
SMALL
GASTEIGER

@<TRIPOS>ATOM
      1 C         139.8524  139.4151  163.5807 C.ar    1  UNL1        0.1879
      2 N         139.9153  138.0460  162.9710 N.ar    1  UNL1       -0.1271
      3 N         139.5520  138.1673  161.5207 N.ar    1  UNL1       -0.1330
      4 C         139.2646  139.6114  161.2341 C.ar    1  UNL1        0.1468
      5 N         139.4503  140.3825  162.5073 N.ar    1  UNL1       -0.2739
      6 C         139.2661  141.8614  162.6771 C.ar    1  UNL1        0.0939
      7 C         140.4289  142.7892  162.4838 C.ar    1  UNL1        0.0199
      8 C         140.2448  144.2681  162.6536 C.ar    1  UNL1        0.0016
      9 C         138.8979  144.8193  163.0168 C.ar    1  UNL1        0.0024
     10 C         137.7351  143.8917  163.2102 C.ar    1  UNL1        0.0311
     11 C         137.9193  142.4127  163.0403 C.ar    1  UNL1        0.1562
     12 F         136.7564  141.4851  163.2337 F       1  UNL1       -0.2026
     13 C         140.7183  140.4399  167.8761 C.ar    1  UNL1        0.1576
     14 C         139.3894  139.8563  167.4975 C.ar    1  UNL1        0.0402
     15 C         139.1008  139.5147  166.0657 C.ar    1  UNL1        0.0254
     16 C         140.1411  139.7567  165.0125 C.ar    1  UNL1        0.1176
     17 N         141.4700  140.3402  165.3912 N.ar    1  UNL1       -0.2376
     18 C         141.7586  140.6818  166.8229 C.ar    1  UNL1        0.1357
     19 O         141.0069  140.7815  169.3079 O.3     1  UNL1       -0.4739
     20 C         142.5255  138.7898  169.9985 C.3     1  UNL1        0.0512
     21 C         142.2515  140.2642  169.9662 C.3     1  UNL1        0.2056
     22 C         138.8622  140.1838  159.9074 C.3     1  UNL1        0.0624
     23 C         138.2245  141.4635  159.4538 C.3     1  UNL1        0.0272
     24 C         138.2930  140.9934  158.0310 C.3     1  UNL1        0.0728
     25 C         138.9307  139.7136  158.4846 C.3     1  UNL1        0.0272
     26 N         137.8906  141.5657  156.7042 N.am    1  UNL1       -0.3012
     27 C         136.5287  141.2780  156.1453 C.2     1  UNL1        0.2635
     28 O         135.5693  140.4178  156.9131 O.2     1  UNL1       -0.2685
     29 H         138.5204  142.1303  156.2002 H       1  UNL1        0.1497
     30 C         136.1262  141.8503  154.8185 C.ar    1  UNL1        0.1345
     31 C         136.8357  143.0551  154.2750 C.ar    1  UNL1        0.0238
     32 C         136.4331  143.6274  152.9481 C.ar    1  UNL1        0.0033
     33 C         135.3212  142.9950  152.1648 C.ar    1  UNL1        0.0207
     34 C         134.6118  141.7902  152.7082 C.ar    1  UNL1        0.0990
     35 N         135.0144  141.2179  154.0351 N.ar    1  UNL1       -0.2393
@<TRIPOS>BOND
     1    20    21    1
     2    21    19    1
     3    19    13    1
     4    13    14   ar
     5    14    15   ar
     6    15    16   ar
     7    16     1    1
     8     1     2   ar
     9     2     3   ar
    10     3     4   ar
    11    22     4    1
    12    22    23    1
    13    23    24    1
    14    24    26    1
    15    26    27   am
    16    27    28    2
    17    27    30    1
    18    30    31   ar
    19    31    32   ar
    20    32    33   ar
    21    33    34   ar
    22    34    35   ar
    23    24    25    1
    24     4     5   ar
    25     5     6    1
    26     6     7   ar
    27     7     8   ar
    28     8     9   ar
    29     9    10   ar
    30    10    11   ar
    31    11    12    1
    32    16    17   ar
    33    17    18   ar
    34    18    13   ar
    35     5     1   ar
    36    11     6   ar
    37    25    22    1
    38    35    30   ar
    39    26    29    1
