@<TRIPOS>MOLECULE
*****
 38 42 0 0 0
SMALL
GASTEIGER

@<TRIPOS>ATOM
      1 N         139.5883  143.4481  161.4485 N.3     1  UNL1       -0.2750
      2 C         140.3834  144.5598  160.8308 C.3     1  UNL1        0.0737
      3 C         140.4138  144.7214  159.3398 C.3     1  UNL1        0.0371
      4 C         139.6491  143.7712  158.4666 C.3     1  UNL1        0.0759
      5 C         138.8540  142.6595  159.0844 C.3     1  UNL1        0.0371
      6 C         138.8236  142.4979  160.5754 C.3     1  UNL1        0.0737
      7 C         141.0608  140.4983  166.1359 C.2     1  UNL1        0.2542
      8 O         141.8693  139.2921  165.7596 O.2     1  UNL1       -0.2697
      9 N         140.5598  141.4276  165.0705 N.am    1  UNL1       -0.2758
     10 C         140.8673  141.1509  163.6286 C.3     1  UNL1        0.0951
     11 C         140.3664  142.0803  162.5632 C.3     1  UNL1        0.0362
     12 C         139.5579  143.2864  162.9395 C.3     1  UNL1        0.0487
     13 C         138.7600  144.5486  162.7980 C.3     1  UNL1        0.0161
     14 C         139.2504  143.5632  164.3813 C.3     1  UNL1        0.0362
     15 C         139.7513  142.6337  165.4468 C.3     1  UNL1        0.0951
     16 C         142.9038  142.2214  167.7589 C.3     1  UNL1        0.0316
     17 C         141.6748  141.6365  168.3893 C.ar    1  UNL1       -0.0058
     18 C         141.3672  141.9132  169.8311 C.ar    1  UNL1        0.0730
     19 C         140.1382  141.3283  170.4614 C.ar    1  UNL1        0.3010
     20 N         139.2166  140.4667  169.6499 N.ar    1  UNL1       -0.1606
     21 O         137.9876  139.8819  170.2803 O.co2   1  UNL1       -0.6190
     22 C         139.5242  140.1901  168.2082 C.ar    1  UNL1        0.2180
     23 C         138.6027  139.3285  167.3966 C.3     1  UNL1        0.1093
     24 C         140.7533  140.7750  167.5778 C.ar    1  UNL1        0.1099
     25 N         139.6795  143.9329  156.9757 N.pl3   1  UNL1       -0.3051
     26 C         138.6927  143.1941  156.1209 C.ar    1  UNL1        0.0480
     27 C         139.0393  141.8409  155.5743 C.ar    1  UNL1        0.0145
     28 C         138.0525  141.1022  154.7196 C.ar    1  UNL1        0.0013
     29 C         136.7193  141.7166  154.4115 C.ar    1  UNL1        0.0001
     30 C         136.3728  143.0698  154.9581 C.ar    1  UNL1        0.0013
     31 C         137.3596  143.8085  155.8128 C.ar    1  UNL1        0.0145
     32 C         140.6966  144.8332  156.3394 C.3     1  UNL1        0.1177
     33 C         140.2676  146.1312  155.7219 C.ar    1  UNL1       -0.0024
     34 C         139.2976  147.0200  156.4423 C.ar    1  UNL1       -0.0026
     35 C         138.8686  148.3179  155.8248 C.ar    1  UNL1       -0.0003
     36 C         139.4097  148.7270  154.4869 C.ar    1  UNL1       -0.0000
     37 C         140.3797  147.8382  153.7665 C.ar    1  UNL1       -0.0003
     38 C         140.8087  146.5402  154.3840 C.ar    1  UNL1       -0.0026
@<TRIPOS>UNITY_ATOM_ATTR
20 1
charge 1
21 1
charge -1
@<TRIPOS>BOND
     1    16    17    1
     2    17    18   ar
     3    18    19   ar
     4    19    20   ar
     5    20    21    1
     6    20    22   ar
     7    22    23    1
     8    22    24   ar
     9    24     7    1
    10     7     8    2
    11     7     9   am
    12     9    10    1
    13    10    11    1
    14    11    12    1
    15    12    13    1
    16    12     1    1
    17     1     2    1
    18     2     3    1
    19     3     4    1
    20     4    25    1
    21    25    32    1
    22    32    33    1
    23    33    34   ar
    24    34    35   ar
    25    35    36   ar
    26    36    37   ar
    27    37    38   ar
    28    25    26    1
    29    26    27   ar
    30    27    28   ar
    31    28    29   ar
    32    29    30   ar
    33    30    31   ar
    34     4     5    1
    35     5     6    1
    36    12    14    1
    37    14    15    1
    38    24    17   ar
    39    15     9    1
    40     6     1    1
    41    38    33   ar
    42    31    26   ar
@<TRIPOS>MOLECULE
*****
 38 42 0 0 0
SMALL
GASTEIGER

@<TRIPOS>ATOM
      1 N         139.5226  143.3915  161.5085 N.3     1  UNL1       -0.2750
      2 C         138.7563  142.4552  160.6219 C.3     1  UNL1        0.0737
      3 C         138.8067  142.6231  159.1322 C.3     1  UNL1        0.0371
      4 C         139.6235  143.7272  158.5291 C.3     1  UNL1        0.0759
      5 C         140.3898  144.6635  159.4156 C.3     1  UNL1        0.0371
      6 C         140.3394  144.4957  160.9054 C.3     1  UNL1        0.0737
      7 C         141.2000  140.6172  166.2340 C.2     1  UNL1        0.2542
      8 O         142.1504  139.5121  165.8794 O.2     1  UNL1       -0.2697
      9 N         140.6241  141.4860  165.1554 N.am    1  UNL1       -0.2758
     10 C         140.9985  141.2498  163.7222 C.3     1  UNL1        0.0951
     11 C         140.4225  142.1187  162.6436 C.3     1  UNL1        0.0362
     12 C         139.4721  143.2237  162.9982 C.3     1  UNL1        0.0487
     13 C         138.5393  144.3870  162.8354 C.3     1  UNL1        0.0161
     14 C         139.0977  143.4599  164.4314 C.3     1  UNL1        0.0362
     15 C         139.6737  142.5910  165.5100 C.3     1  UNL1        0.0951
     16 C         138.7052  139.3849  167.3553 C.3     1  UNL1        0.0316
     17 C         139.5782  140.2372  168.2278 C.ar    1  UNL1       -0.0058
     18 C         139.2039  140.4734  169.6610 C.ar    1  UNL1        0.0730
     19 C         140.0770  141.3256  170.5336 C.ar    1  UNL1        0.3010
     20 N         141.3244  141.9417  169.9730 N.ar    1  UNL1       -0.1606
     21 O         142.1975  142.7940  170.8455 O.co2   1  UNL1       -0.6190
     22 C         141.6987  141.7056  168.5398 C.ar    1  UNL1        0.2180
     23 C         142.9462  142.3217  167.9791 C.3     1  UNL1        0.1093
     24 C         140.8257  140.8533  167.6672 C.ar    1  UNL1        0.1099
     25 N         139.6739  143.8951  157.0393 N.pl3   1  UNL1       -0.3051
     26 C         138.6965  143.1626  156.1686 C.ar    1  UNL1        0.0480
     27 C         139.0751  141.8448  155.5602 C.ar    1  UNL1        0.0145
     28 C         138.0976  141.1123  154.6894 C.ar    1  UNL1        0.0013
     29 C         136.7418  141.6976  154.4271 C.ar    1  UNL1        0.0001
     30 C         136.3632  143.0154  155.0354 C.ar    1  UNL1        0.0013
     31 C         137.3406  143.7479  155.9062 C.ar    1  UNL1        0.0145
     32 C         140.7017  144.7953  156.4203 C.3     1  UNL1        0.1177
     33 C         140.2789  146.0747  155.7613 C.ar    1  UNL1       -0.0024
     34 C         140.8227  146.4385  154.4116 C.ar    1  UNL1       -0.0026
     35 C         140.3999  147.7179  153.7526 C.ar    1  UNL1       -0.0003
     36 C         139.4331  148.6335  154.4434 C.ar    1  UNL1       -0.0000
     37 C         138.8893  148.2697  155.7931 C.ar    1  UNL1       -0.0003
     38 C         139.3121  146.9903  156.4521 C.ar    1  UNL1       -0.0026
@<TRIPOS>UNITY_ATOM_ATTR
20 1
charge 1
21 1
charge -1
@<TRIPOS>BOND
     1    16    17    1
     2    17    18   ar
     3    18    19   ar
     4    19    20   ar
     5    20    21    1
     6    20    22   ar
     7    22    23    1
     8    22    24   ar
     9    24     7    1
    10     7     8    2
    11     7     9   am
    12     9    10    1
    13    10    11    1
    14    11    12    1
    15    12    13    1
    16    12     1    1
    17     1     2    1
    18     2     3    1
    19     3     4    1
    20     4    25    1
    21    25    32    1
    22    32    33    1
    23    33    34   ar
    24    34    35   ar
    25    35    36   ar
    26    36    37   ar
    27    37    38   ar
    28    25    26    1
    29    26    27   ar
    30    27    28   ar
    31    28    29   ar
    32    29    30   ar
    33    30    31   ar
    34     4     5    1
    35     5     6    1
    36    12    14    1
    37    14    15    1
    38    24    17   ar
    39    15     9    1
    40     6     1    1
    41    38    33   ar
    42    31    26   ar
@<TRIPOS>MOLECULE
*****
 38 42 0 0 0
SMALL
GASTEIGER

@<TRIPOS>ATOM
      1 N         140.6762  139.6885  160.1388 N.3     1  UNL1       -0.2750
      2 C         140.1022  141.0737  160.0994 C.3     1  UNL1        0.0737
      3 C         140.1399  141.9365  161.3259 C.3     1  UNL1        0.0371
      4 C         140.7518  141.4139  162.5918 C.3     1  UNL1        0.0759
      5 C         141.3258  140.0287  162.6313 C.3     1  UNL1        0.0371
      6 C         141.2880  139.1659  161.4048 C.3     1  UNL1        0.0737
      7 C         143.3950  137.2325  155.7323 C.2     1  UNL1        0.2542
      8 O         144.8536  137.5811  155.7608 O.2     1  UNL1       -0.2697
      9 N         142.4761  137.7636  156.7923 N.am    1  UNL1       -0.2758
     10 C         143.0159  138.6434  157.8808 C.3     1  UNL1        0.0951
     11 C         142.0970  139.1744  158.9408 C.3     1  UNL1        0.0362
     12 C         140.6384  138.8258  158.9123 C.3     1  UNL1        0.0487
     13 C         139.1929  138.7768  159.3098 C.3     1  UNL1        0.0161
     14 C         140.0986  137.9461  157.8239 C.3     1  UNL1        0.0362
     15 C         141.0175  137.4149  156.7639 C.3     1  UNL1        0.0951
     16 C         142.1432  138.4568  153.2963 C.3     1  UNL1        0.0316
     17 C         142.2293  136.9649  153.4259 C.ar    1  UNL1       -0.0058
     18 C         141.6896  136.0851  152.3375 C.ar    1  UNL1        0.0730
     19 C         141.7758  134.5932  152.4671 C.ar    1  UNL1        0.3010
     20 N         142.4016  133.9810  153.6850 N.ar    1  UNL1       -0.1606
     21 O         142.4878  132.4891  153.8146 O.co2   1  UNL1       -0.6190
     22 C         142.9413  134.8608  154.7734 C.ar    1  UNL1        0.2180
     23 C         143.5673  134.2487  155.9915 C.3     1  UNL1        0.1093
     24 C         142.8552  136.3527  154.6439 C.ar    1  UNL1        0.1099
     25 N         140.7895  142.2766  163.8183 N.pl3   1  UNL1       -0.3051
     26 C         142.0365  143.0358  164.1631 C.ar    1  UNL1        0.0480
     27 C         143.1092  142.3830  164.9836 C.ar    1  UNL1        0.0145
     28 C         144.3561  143.1422  165.3285 C.ar    1  UNL1        0.0013
     29 C         144.5303  144.5540  164.8528 C.ar    1  UNL1        0.0001
     30 C         143.4576  145.2068  164.0323 C.ar    1  UNL1        0.0013
     31 C         142.2107  144.4476  163.6875 C.ar    1  UNL1        0.0145
     32 C         139.5805  142.3802  164.7000 C.3     1  UNL1        0.1177
     33 C         139.2338  141.2577  165.6327 C.ar    1  UNL1       -0.0024
     34 C         139.8654  141.1894  166.9914 C.ar    1  UNL1       -0.0026
     35 C         139.5187  140.0669  167.9241 C.ar    1  UNL1       -0.0003
     36 C         138.5404  139.0127  167.4979 C.ar    1  UNL1       -0.0000
     37 C         137.9088  139.0810  166.1391 C.ar    1  UNL1       -0.0003
     38 C         138.2555  140.2035  165.2064 C.ar    1  UNL1       -0.0026
@<TRIPOS>UNITY_ATOM_ATTR
20 1
charge 1
21 1
charge -1
@<TRIPOS>BOND
     1    16    17    1
     2    17    18   ar
     3    18    19   ar
     4    19    20   ar
     5    20    21    1
     6    20    22   ar
     7    22    23    1
     8    22    24   ar
     9    24     7    1
    10     7     8    2
    11     7     9   am
    12     9    10    1
    13    10    11    1
    14    11    12    1
    15    12    13    1
    16    12     1    1
    17     1     2    1
    18     2     3    1
    19     3     4    1
    20     4    25    1
    21    25    32    1
    22    32    33    1
    23    33    34   ar
    24    34    35   ar
    25    35    36   ar
    26    36    37   ar
    27    37    38   ar
    28    25    26    1
    29    26    27   ar
    30    27    28   ar
    31    28    29   ar
    32    29    30   ar
    33    30    31   ar
    34     4     5    1
    35     5     6    1
    36    12    14    1
    37    14    15    1
    38    24    17   ar
    39    15     9    1
    40     6     1    1
    41    38    33   ar
    42    31    26   ar
@<TRIPOS>MOLECULE
*****
 38 42 0 0 0
SMALL
GASTEIGER

@<TRIPOS>ATOM
      1 N         139.1894  142.9105  161.2716 N.3     1  UNL1       -0.2750
      2 C         138.4257  141.8794  160.4947 C.3     1  UNL1        0.0737
      3 C         138.3908  141.9429  158.9965 C.3     1  UNL1        0.0371
      4 C         139.1197  143.0377  158.2751 C.3     1  UNL1        0.0759
      5 C         139.8833  144.0688  159.0519 C.3     1  UNL1        0.0371
      6 C         139.9182  144.0053  160.5502 C.3     1  UNL1        0.0737
      7 C         140.9612  140.3338  166.0739 C.2     1  UNL1        0.2542
      8 O         141.8011  139.1359  165.7427 O.2     1  UNL1       -0.2697
      9 N         140.3822  141.1715  164.9726 N.am    1  UNL1       -0.2758
     10 C         140.6432  140.8114  163.5399 C.3     1  UNL1        0.0951
     11 C         140.0643  141.6491  162.4386 C.3     1  UNL1        0.0362
     12 C         139.2243  142.8470  162.7698 C.3     1  UNL1        0.0487
     13 C         138.3723  144.0668  162.5807 C.3     1  UNL1        0.0161
     14 C         138.9633  143.2071  164.2023 C.3     1  UNL1        0.0362
     15 C         139.5423  142.3693  165.3037 C.3     1  UNL1        0.0951
     16 C         142.8517  142.1499  167.5325 C.3     1  UNL1        0.0316
     17 C         141.6455  141.6019  168.2358 C.ar    1  UNL1       -0.0058
     18 C         141.3844  141.9619  169.6683 C.ar    1  UNL1        0.0730
     19 C         140.1782  141.4139  170.3716 C.ar    1  UNL1        0.3010
     20 N         139.2329  140.5058  169.6423 N.ar    1  UNL1       -0.1606
     21 O         138.0266  139.9578  170.3456 O.co2   1  UNL1       -0.6190
     22 C         139.4939  140.1458  168.2098 C.ar    1  UNL1        0.2180
     23 C         138.5486  139.2377  167.4804 C.3     1  UNL1        0.1093
     24 C         140.7002  140.6938  167.5065 C.ar    1  UNL1        0.1099
     25 N         139.0847  143.1013  156.7769 N.pl3   1  UNL1       -0.3051
     26 C         139.3951  144.3892  156.0734 C.ar    1  UNL1        0.0480
     27 C         138.2953  145.3643  155.7742 C.ar    1  UNL1        0.0145
     28 C         138.6057  146.6523  155.0708 C.ar    1  UNL1        0.0013
     29 C         140.0159  146.9652  154.6665 C.ar    1  UNL1        0.0001
     30 C         141.1157  145.9901  154.9657 C.ar    1  UNL1        0.0013
     31 C         140.8053  144.7021  155.6691 C.ar    1  UNL1        0.0145
     32 C         138.7395  141.8769  155.9820 C.3     1  UNL1        0.1177
     33 C         137.3692  141.7287  155.3901 C.ar    1  UNL1       -0.0024
     34 C         136.2617  141.1277  156.2038 C.ar    1  UNL1       -0.0026
     35 C         134.8915  140.9794  155.6119 C.ar    1  UNL1       -0.0003
     36 C         134.6287  141.4322  154.2062 C.ar    1  UNL1       -0.0000
     37 C         135.7362  142.0332  153.3924 C.ar    1  UNL1       -0.0003
     38 C         137.1065  142.1815  153.9844 C.ar    1  UNL1       -0.0026
@<TRIPOS>UNITY_ATOM_ATTR
20 1
charge 1
21 1
charge -1
@<TRIPOS>BOND
     1    16    17    1
     2    17    18   ar
     3    18    19   ar
     4    19    20   ar
     5    20    21    1
     6    20    22   ar
     7    22    23    1
     8    22    24   ar
     9    24     7    1
    10     7     8    2
    11     7     9   am
    12     9    10    1
    13    10    11    1
    14    11    12    1
    15    12    13    1
    16    12     1    1
    17     1     2    1
    18     2     3    1
    19     3     4    1
    20     4    25    1
    21    25    32    1
    22    32    33    1
    23    33    34   ar
    24    34    35   ar
    25    35    36   ar
    26    36    37   ar
    27    37    38   ar
    28    25    26    1
    29    26    27   ar
    30    27    28   ar
    31    28    29   ar
    32    29    30   ar
    33    30    31   ar
    34     4     5    1
    35     5     6    1
    36    12    14    1
    37    14    15    1
    38    24    17   ar
    39    15     9    1
    40     6     1    1
    41    38    33   ar
    42    31    26   ar
@<TRIPOS>MOLECULE
*****
 38 42 0 0 0
SMALL
GASTEIGER

@<TRIPOS>ATOM
      1 N         140.6269  139.3584  159.6785 N.3     1  UNL1       -0.2750
      2 C         140.6479  138.6792  161.0157 C.3     1  UNL1        0.0737
      3 C         140.8343  139.4883  162.2649 C.3     1  UNL1        0.0371
      4 C         140.9996  140.9766  162.1769 C.3     1  UNL1        0.0759
      5 C         140.9786  141.6557  160.8397 C.3     1  UNL1        0.0371
      6 C         140.7922  140.8467  159.5904 C.3     1  UNL1        0.0737
      7 C         142.8227  136.0061  155.5819 C.2     1  UNL1        0.2542
      8 O         144.2903  135.7973  155.8109 O.2     1  UNL1       -0.2697
      9 N         142.0286  136.8538  156.5310 N.am    1  UNL1       -0.2758
     10 C         142.7022  137.4928  157.7092 C.3     1  UNL1        0.0951
     11 C         141.9081  138.3406  158.6582 C.3     1  UNL1        0.0362
     12 C         140.4405  138.5493  158.4292 C.3     1  UNL1        0.0487
     13 C         139.0376  139.0391  158.6340 C.3     1  UNL1        0.0161
     14 C         139.7669  137.9104  157.2511 C.3     1  UNL1        0.0362
     15 C         140.5610  137.0626  156.3019 C.3     1  UNL1        0.0951
     16 C         142.3542  137.5928  153.0793 C.3     1  UNL1        0.0316
     17 C         141.9149  136.1604  153.1525 C.ar    1  UNL1       -0.0058
     18 C         141.2414  135.5214  151.9744 C.ar    1  UNL1        0.0730
     19 C         140.8020  134.0891  152.0475 C.ar    1  UNL1        0.3010
     20 N         141.0362  133.2957  153.2988 N.ar    1  UNL1       -0.1606
     21 O         140.5969  131.8634  153.3720 O.co2   1  UNL1       -0.6190
     22 C         141.7098  133.9347  154.4769 C.ar    1  UNL1        0.2180
     23 C         141.9440  133.1414  155.7282 C.3     1  UNL1        0.1093
     24 C         142.1491  135.3671  154.4037 C.ar    1  UNL1        0.1099
     25 N         141.1860  141.7856  163.4262 N.pl3   1  UNL1       -0.3051
     26 C         140.0707  142.6518  163.9322 C.ar    1  UNL1        0.0480
     27 C         140.3806  143.9513  164.6142 C.ar    1  UNL1        0.0145
     28 C         139.2653  144.8174  165.1202 C.ar    1  UNL1        0.0013
     29 C         137.8402  144.3840  164.9441 C.ar    1  UNL1        0.0001
     30 C         137.5302  143.0845  164.2621 C.ar    1  UNL1        0.0013
     31 C         138.6455  142.2184  163.7561 C.ar    1  UNL1        0.0145
     32 C         142.4876  141.7286  164.1695 C.3     1  UNL1        0.1177
     33 C         142.6098  140.8862  165.4046 C.ar    1  UNL1       -0.0024
     34 C         142.1712  141.4320  166.7311 C.ar    1  UNL1       -0.0026
     35 C         142.2934  140.5895  167.9662 C.ar    1  UNL1       -0.0003
     36 C         142.8542  139.2013  167.8746 C.ar    1  UNL1       -0.0000
     37 C         143.2927  138.6555  166.5481 C.ar    1  UNL1       -0.0003
     38 C         143.1706  139.4980  165.3131 C.ar    1  UNL1       -0.0026
@<TRIPOS>UNITY_ATOM_ATTR
20 1
charge 1
21 1
charge -1
@<TRIPOS>BOND
     1    16    17    1
     2    17    18   ar
     3    18    19   ar
     4    19    20   ar
     5    20    21    1
     6    20    22   ar
     7    22    23    1
     8    22    24   ar
     9    24     7    1
    10     7     8    2
    11     7     9   am
    12     9    10    1
    13    10    11    1
    14    11    12    1
    15    12    13    1
    16    12     1    1
    17     1     2    1
    18     2     3    1
    19     3     4    1
    20     4    25    1
    21    25    32    1
    22    32    33    1
    23    33    34   ar
    24    34    35   ar
    25    35    36   ar
    26    36    37   ar
    27    37    38   ar
    28    25    26    1
    29    26    27   ar
    30    27    28   ar
    31    28    29   ar
    32    29    30   ar
    33    30    31   ar
    34     4     5    1
    35     5     6    1
    36    12    14    1
    37    14    15    1
    38    24    17   ar
    39    15     9    1
    40     6     1    1
    41    38    33   ar
    42    31    26   ar
@<TRIPOS>MOLECULE
*****
 38 42 0 0 0
SMALL
GASTEIGER

@<TRIPOS>ATOM
      1 N         139.1717  142.8976  161.3757 N.3     1  UNL1       -0.2750
      2 C         139.9082  143.9795  160.6429 C.3     1  UNL1        0.0737
      3 C         139.8801  144.0231  159.1438 C.3     1  UNL1        0.0371
      4 C         139.1155  142.9847  158.3775 C.3     1  UNL1        0.0759
      5 C         138.3790  141.9028  159.1103 C.3     1  UNL1        0.0371
      6 C         138.4071  141.8592  160.6094 C.3     1  UNL1        0.0737
      7 C         141.1614  140.5724  166.2209 C.2     1  UNL1        0.2542
      8 O         142.1253  139.4660  165.9100 O.2     1  UNL1       -0.2697
      9 N         140.5076  141.3329  165.1055 N.am    1  UNL1       -0.2758
     10 C         140.8176  140.9871  163.6792 C.3     1  UNL1        0.0951
     11 C         140.1637  141.7476  162.5639 C.3     1  UNL1        0.0362
     12 C         139.1998  142.8540  162.8748 C.3     1  UNL1        0.0487
     13 C         138.2262  143.9756  162.6651 C.3     1  UNL1        0.0161
     14 C         138.8898  143.1999  164.3010 C.3     1  UNL1        0.0362
     15 C         139.5437  142.4394  165.4164 C.3     1  UNL1        0.0951
     16 C         138.7364  139.4124  167.5527 C.3     1  UNL1        0.0316
     17 C         139.6389  140.3383  168.3131 C.ar    1  UNL1       -0.0058
     18 C         139.3289  140.6842  169.7393 C.ar    1  UNL1        0.0730
     19 C         140.2314  141.6101  170.4997 C.ar    1  UNL1        0.3010
     20 N         141.4439  142.1901  169.8338 N.ar    1  UNL1       -0.1606
     21 O         142.3464  143.1161  170.5942 O.co2   1  UNL1       -0.6190
     22 C         141.7539  141.8442  168.4076 C.ar    1  UNL1        0.2180
     23 C         142.9664  142.4243  167.7416 C.3     1  UNL1        0.1093
     24 C         140.8514  140.9183  167.6472 C.ar    1  UNL1        0.1099
     25 N         139.0874  143.0283  156.8784 N.pl3   1  UNL1       -0.3051
     26 C         139.4305  144.2988  156.1585 C.ar    1  UNL1        0.0480
     27 C         138.3575  145.3020  155.8548 C.ar    1  UNL1        0.0145
     28 C         138.7007  146.5725  155.1349 C.ar    1  UNL1        0.0013
     29 C         140.1167  146.8397  154.7187 C.ar    1  UNL1        0.0001
     30 C         141.1898  145.8365  155.0224 C.ar    1  UNL1        0.0013
     31 C         140.8466  144.5660  155.7423 C.ar    1  UNL1        0.0145
     32 C         138.7162  141.8016  156.0992 C.3     1  UNL1        0.1177
     33 C         137.3409  141.6719  155.5145 C.ar    1  UNL1       -0.0024
     34 C         137.0547  142.2106  154.1442 C.ar    1  UNL1       -0.0026
     35 C         135.6794  142.0809  153.5596 C.ar    1  UNL1       -0.0003
     36 C         134.5904  141.4126  154.3454 C.ar    1  UNL1       -0.0000
     37 C         134.8766  140.8739  155.7157 C.ar    1  UNL1       -0.0003
     38 C         136.2519  141.0036  156.3003 C.ar    1  UNL1       -0.0026
@<TRIPOS>UNITY_ATOM_ATTR
20 1
charge 1
21 1
charge -1
@<TRIPOS>BOND
     1    16    17    1
     2    17    18   ar
     3    18    19   ar
     4    19    20   ar
     5    20    21    1
     6    20    22   ar
     7    22    23    1
     8    22    24   ar
     9    24     7    1
    10     7     8    2
    11     7     9   am
    12     9    10    1
    13    10    11    1
    14    11    12    1
    15    12    13    1
    16    12     1    1
    17     1     2    1
    18     2     3    1
    19     3     4    1
    20     4    25    1
    21    25    32    1
    22    32    33    1
    23    33    34   ar
    24    34    35   ar
    25    35    36   ar
    26    36    37   ar
    27    37    38   ar
    28    25    26    1
    29    26    27   ar
    30    27    28   ar
    31    28    29   ar
    32    29    30   ar
    33    30    31   ar
    34     4     5    1
    35     5     6    1
    36    12    14    1
    37    14    15    1
    38    24    17   ar
    39    15     9    1
    40     6     1    1
    41    38    33   ar
    42    31    26   ar
@<TRIPOS>MOLECULE
*****
 38 42 0 0 0
SMALL
GASTEIGER

@<TRIPOS>ATOM
      1 N         141.8667  142.5203  160.8257 N.3     1  UNL1       -0.2750
      2 C         140.3780  142.5501  161.0063 C.3     1  UNL1        0.0737
      3 C         139.7783  142.2333  162.3442 C.3     1  UNL1        0.0371
      4 C         140.6674  141.8866  163.5015 C.3     1  UNL1        0.0759
      5 C         142.1561  141.8568  163.3210 C.3     1  UNL1        0.0371
      6 C         142.7558  142.1736  161.9831 C.3     1  UNL1        0.0737
      7 C         144.8000  140.8436  156.1970 C.2     1  UNL1        0.2542
      8 O         145.1838  139.3986  156.3189 O.2     1  UNL1       -0.2697
      9 N         144.0222  141.5081  157.2939 N.am    1  UNL1       -0.2758
     10 C         143.6280  140.7277  158.5128 C.3     1  UNL1        0.0951
     11 C         142.8502  141.3922  159.6097 C.3     1  UNL1        0.0362
     12 C         142.4665  142.8371  159.4879 C.3     1  UNL1        0.0487
     13 C         141.8745  144.1720  159.8306 C.3     1  UNL1        0.0161
     14 C         142.8606  143.6176  158.2691 C.3     1  UNL1        0.0362
     15 C         143.6385  142.9531  157.1720 C.3     1  UNL1        0.0951
     16 C         142.9377  141.0023  153.8503 C.3     1  UNL1        0.0316
     17 C         144.2631  141.7034  153.8048 C.ar    1  UNL1       -0.0058
     18 C         144.6572  142.4838  152.5860 C.ar    1  UNL1        0.0730
     19 C         145.9826  143.1848  152.5405 C.ar    1  UNL1        0.3010
     20 N         146.9137  143.1054  153.7137 N.ar    1  UNL1       -0.1606
     21 O         148.2390  143.8065  153.6682 O.co2   1  UNL1       -0.6190
     22 C         146.5195  142.3250  154.9325 C.ar    1  UNL1        0.2180
     23 C         147.4507  142.2456  156.1059 C.3     1  UNL1        0.1093
     24 C         145.1942  141.6240  154.9781 C.ar    1  UNL1        0.1099
     25 N         140.0677  141.5698  164.8394 N.pl3   1  UNL1       -0.3051
     26 C         139.5715  140.1843  165.1297 C.ar    1  UNL1        0.0480
     27 C         140.1490  139.0114  164.3943 C.ar    1  UNL1        0.0145
     28 C         139.6529  137.6259  164.6847 C.ar    1  UNL1        0.0013
     29 C         138.5793  137.4133  165.7104 C.ar    1  UNL1        0.0001
     30 C         138.0018  138.5861  166.4458 C.ar    1  UNL1        0.0013
     31 C         138.4979  139.9716  166.1555 C.ar    1  UNL1        0.0145
     32 C         139.9640  142.6383  165.8870 C.3     1  UNL1        0.1177
     33 C         140.8867  142.6215  167.0695 C.ar    1  UNL1       -0.0024
     34 C         140.3791  143.0231  168.4226 C.ar    1  UNL1       -0.0026
     35 C         141.3018  143.0062  169.6051 C.ar    1  UNL1       -0.0003
     36 C         142.7321  142.5877  169.4345 C.ar    1  UNL1       -0.0000
     37 C         143.2397  142.1861  168.0813 C.ar    1  UNL1       -0.0003
     38 C         142.3170  142.2030  166.8988 C.ar    1  UNL1       -0.0026
@<TRIPOS>UNITY_ATOM_ATTR
20 1
charge 1
21 1
charge -1
@<TRIPOS>BOND
     1    16    17    1
     2    17    18   ar
     3    18    19   ar
     4    19    20   ar
     5    20    21    1
     6    20    22   ar
     7    22    23    1
     8    22    24   ar
     9    24     7    1
    10     7     8    2
    11     7     9   am
    12     9    10    1
    13    10    11    1
    14    11    12    1
    15    12    13    1
    16    12     1    1
    17     1     2    1
    18     2     3    1
    19     3     4    1
    20     4    25    1
    21    25    32    1
    22    32    33    1
    23    33    34   ar
    24    34    35   ar
    25    35    36   ar
    26    36    37   ar
    27    37    38   ar
    28    25    26    1
    29    26    27   ar
    30    27    28   ar
    31    28    29   ar
    32    29    30   ar
    33    30    31   ar
    34     4     5    1
    35     5     6    1
    36    12    14    1
    37    14    15    1
    38    24    17   ar
    39    15     9    1
    40     6     1    1
    41    38    33   ar
    42    31    26   ar
@<TRIPOS>MOLECULE
*****
 38 42 0 0 0
SMALL
GASTEIGER

@<TRIPOS>ATOM
      1 N         140.0238  143.1556  161.7569 N.3     1  UNL1       -0.2750
      2 C         141.1823  143.8265  161.0805 C.3     1  UNL1        0.0737
      3 C         141.2517  143.8737  159.5829 C.3     1  UNL1        0.0371
      4 C         140.1624  143.2499  158.7616 C.3     1  UNL1        0.0759
      5 C         139.0039  142.5789  159.4380 C.3     1  UNL1        0.0371
      6 C         138.9345  142.5317  160.9357 C.3     1  UNL1        0.0737
      7 C         141.3658  140.5710  166.6925 C.2     1  UNL1        0.2542
      8 O         142.1799  139.3388  166.4305 O.2     1  UNL1       -0.2697
      9 N         140.8953  141.4168  165.5466 N.am    1  UNL1       -0.2758
     10 C         141.2391  141.0304  164.1385 C.3     1  UNL1        0.0951
     11 C         140.7686  141.8762  162.9926 C.3     1  UNL1        0.0362
     12 C         139.9544  143.1084  163.2546 C.3     1  UNL1        0.0487
     13 C         139.1643  144.3570  162.9965 C.3     1  UNL1        0.0161
     14 C         139.6107  143.4949  164.6625 C.3     1  UNL1        0.0362
     15 C         140.0811  142.6491  165.8086 C.3     1  UNL1        0.0951
     16 C         138.8194  139.5892  167.9384 C.3     1  UNL1        0.0316
     17 C         139.7489  140.4666  168.7235 C.ar    1  UNL1       -0.0058
     18 C         139.4052  140.8530  170.1315 C.ar    1  UNL1        0.0730
     19 C         140.3347  141.7304  170.9166 C.ar    1  UNL1        0.3010
     20 N         141.6078  142.2213  170.2937 N.ar    1  UNL1       -0.1606
     21 O         142.5373  143.0986  171.0788 O.co2   1  UNL1       -0.6190
     22 C         141.9515  141.8348  168.8857 C.ar    1  UNL1        0.2180
     23 C         143.2247  142.3257  168.2627 C.3     1  UNL1        0.1093
     24 C         141.0220  140.9575  168.1006 C.ar    1  UNL1        0.1099
     25 N         140.2318  143.2970  157.2640 N.pl3   1  UNL1       -0.3051
     26 C         139.6827  144.4811  156.5247 C.ar    1  UNL1        0.0480
     27 C         140.4114  145.7917  156.5607 C.ar    1  UNL1        0.0145
     28 C         139.8623  146.9757  155.8214 C.ar    1  UNL1        0.0013
     29 C         138.5845  146.8492  155.0461 C.ar    1  UNL1        0.0001
     30 C         137.8557  145.5386  155.0101 C.ar    1  UNL1        0.0013
     31 C         138.4048  144.3546  155.7494 C.ar    1  UNL1        0.0145
     32 C         140.8502  142.1602  156.5056 C.3     1  UNL1        0.1177
     33 C         142.3216  141.8930  156.6224 C.ar    1  UNL1       -0.0024
     34 C         143.2960  142.6933  155.8101 C.ar    1  UNL1       -0.0026
     35 C         144.7673  142.4261  155.9269 C.ar    1  UNL1       -0.0003
     36 C         145.2643  141.3585  156.8560 C.ar    1  UNL1       -0.0000
     37 C         144.2898  140.5581  157.6683 C.ar    1  UNL1       -0.0003
     38 C         142.8185  140.8254  157.5515 C.ar    1  UNL1       -0.0026
@<TRIPOS>UNITY_ATOM_ATTR
20 1
charge 1
21 1
charge -1
@<TRIPOS>BOND
     1    16    17    1
     2    17    18   ar
     3    18    19   ar
     4    19    20   ar
     5    20    21    1
     6    20    22   ar
     7    22    23    1
     8    22    24   ar
     9    24     7    1
    10     7     8    2
    11     7     9   am
    12     9    10    1
    13    10    11    1
    14    11    12    1
    15    12    13    1
    16    12     1    1
    17     1     2    1
    18     2     3    1
    19     3     4    1
    20     4    25    1
    21    25    32    1
    22    32    33    1
    23    33    34   ar
    24    34    35   ar
    25    35    36   ar
    26    36    37   ar
    27    37    38   ar
    28    25    26    1
    29    26    27   ar
    30    27    28   ar
    31    28    29   ar
    32    29    30   ar
    33    30    31   ar
    34     4     5    1
    35     5     6    1
    36    12    14    1
    37    14    15    1
    38    24    17   ar
    39    15     9    1
    40     6     1    1
    41    38    33   ar
    42    31    26   ar
@<TRIPOS>MOLECULE
*****
 38 42 0 0 0
SMALL
GASTEIGER

@<TRIPOS>ATOM
      1 N         139.2280  140.7558  161.3692 N.3     1  UNL1       -0.2750
      2 C         138.6321  142.0518  160.9055 C.3     1  UNL1        0.0737
      3 C         138.4768  142.3235  159.4385 C.3     1  UNL1        0.0371
      4 C         138.9174  141.2990  158.4353 C.3     1  UNL1        0.0759
      5 C         139.5133  140.0030  158.8990 C.3     1  UNL1        0.0371
      6 C         139.6686  139.7313  160.3660 C.3     1  UNL1        0.0737
      7 C         142.0761  141.5645  166.2759 C.2     1  UNL1        0.2542
      8 O         143.2421  142.4822  166.0561 O.2     1  UNL1       -0.2697
      9 N         141.1785  141.2043  165.1294 N.am    1  UNL1       -0.2758
     10 C         141.4468  141.7620  163.7629 C.3     1  UNL1        0.0951
     11 C         140.5492  141.4018  162.6164 C.3     1  UNL1        0.0362
     12 C         139.3833  140.4841  162.8362 C.3     1  UNL1        0.0487
     13 C         138.1634  139.6608  162.5466 C.3     1  UNL1        0.0161
     14 C         139.1149  139.9265  164.2026 C.3     1  UNL1        0.0362
     15 C         140.0125  140.2866  165.3492 C.3     1  UNL1        0.0951
     16 C         143.2655  138.9307  167.0814 C.3     1  UNL1        0.0316
     17 C         142.4024  139.6900  168.0451 C.ar    1  UNL1       -0.0058
     18 C         142.1341  139.1325  169.4115 C.ar    1  UNL1        0.0730
     19 C         141.2711  139.8918  170.3752 C.ar    1  UNL1        0.3010
     20 N         140.6764  141.2086  169.9724 N.ar    1  UNL1       -0.1606
     21 O         139.8134  141.9679  170.9361 O.co2   1  UNL1       -0.6190
     22 C         140.9448  141.7662  168.6060 C.ar    1  UNL1        0.2180
     23 C         140.3501  143.0831  168.2033 C.3     1  UNL1        0.1093
     24 C         141.8078  141.0068  167.6424 C.ar    1  UNL1        0.1099
     25 N         138.7621  141.5707  156.9683 N.pl3   1  UNL1       -0.3051
     26 C         137.6221  140.9594  156.2089 C.ar    1  UNL1        0.0480
     27 C         136.2177  141.4202  156.4648 C.ar    1  UNL1        0.0145
     28 C         135.0777  140.8089  155.7054 C.ar    1  UNL1        0.0013
     29 C         135.3420  139.7368  154.6902 C.ar    1  UNL1        0.0001
     30 C         136.7463  139.2759  154.4343 C.ar    1  UNL1        0.0013
     31 C         137.8864  139.8873  155.1937 C.ar    1  UNL1        0.0145
     32 C         139.7468  142.4537  156.2606 C.3     1  UNL1        0.1177
     33 C         139.5735  143.9434  156.2883 C.ar    1  UNL1       -0.0024
     34 C         138.6477  144.6090  155.3138 C.ar    1  UNL1       -0.0026
     35 C         138.4745  146.0987  155.3416 C.ar    1  UNL1       -0.0003
     36 C         139.2271  146.9227  156.3439 C.ar    1  UNL1       -0.0000
     37 C         140.1529  146.2571  157.3184 C.ar    1  UNL1       -0.0003
     38 C         140.3262  144.7674  157.2906 C.ar    1  UNL1       -0.0026
@<TRIPOS>UNITY_ATOM_ATTR
20 1
charge 1
21 1
charge -1
@<TRIPOS>BOND
     1    16    17    1
     2    17    18   ar
     3    18    19   ar
     4    19    20   ar
     5    20    21    1
     6    20    22   ar
     7    22    23    1
     8    22    24   ar
     9    24     7    1
    10     7     8    2
    11     7     9   am
    12     9    10    1
    13    10    11    1
    14    11    12    1
    15    12    13    1
    16    12     1    1
    17     1     2    1
    18     2     3    1
    19     3     4    1
    20     4    25    1
    21    25    32    1
    22    32    33    1
    23    33    34   ar
    24    34    35   ar
    25    35    36   ar
    26    36    37   ar
    27    37    38   ar
    28    25    26    1
    29    26    27   ar
    30    27    28   ar
    31    28    29   ar
    32    29    30   ar
    33    30    31   ar
    34     4     5    1
    35     5     6    1
    36    12    14    1
    37    14    15    1
    38    24    17   ar
    39    15     9    1
    40     6     1    1
    41    38    33   ar
    42    31    26   ar
