@<TRIPOS>MOLECULE
*****
 32 35 0 0 0
SMALL
GASTEIGER

@<TRIPOS>ATOM
      1 N         140.9503  140.3824  166.6690 N.3     1  UNL1       -0.2713
      2 C         141.8727  139.3469  166.0973 C.3     1  UNL1        0.0896
      3 C         143.1101  139.7688  165.3618 C.3     1  UNL1        0.0897
      4 N         143.4250  141.2261  165.1980 N.3     1  UNL1       -0.2700
      5 C         142.5027  142.2617  165.7697 C.3     1  UNL1        0.0897
      6 C         141.2653  141.8397  166.5052 C.3     1  UNL1        0.0896
      7 C         139.7129  139.9605  167.4046 C.3     1  UNL1        0.0620
      8 C         139.5276  140.3447  168.8426 C.3     1  UNL1        0.0177
      9 C         138.6609  139.1545  166.7020 C.3     1  UNL1        0.0424
     10 C         137.7800  140.7304  163.1679 C.ar    1  UNL1        0.1479
     11 C         137.9689  140.5886  164.6491 C.ar    1  UNL1        0.0334
     12 C         138.4721  139.2963  165.2207 C.ar    1  UNL1       -0.0178
     13 C         138.7866  138.1458  164.3110 C.ar    1  UNL1       -0.0033
     14 C         138.5977  138.2876  162.8298 C.ar    1  UNL1        0.0130
     15 C         138.0945  139.5799  162.2582 C.ar    1  UNL1        0.1023
     16 C         137.6217  143.3219  163.2616 C.3     1  UNL1        0.2525
     17 O         137.2767  142.0227  162.5962 O.3     1  UNL1       -0.4708
     18 C         137.9056  139.7216  160.7768 C.1     1  UNL1        0.1035
     19 N         137.7169  139.8632  159.2955 N.1     1  UNL1       -0.1907
     20 C         144.6624  141.6480  164.4624 C.3     1  UNL1        0.0769
     21 C         144.6223  141.8392  162.9752 C.3     1  UNL1        0.0433
     22 C         143.3393  142.2303  162.3036 C.ar    1  UNL1       -0.0249
     23 C         142.4869  141.1847  161.6480 C.ar    1  UNL1       -0.0043
     24 C         141.2039  141.5759  160.9764 C.ar    1  UNL1        0.0059
     25 C         140.7735  143.0127  160.9604 C.ar    1  UNL1        0.0748
     26 C         141.6260  144.0584  161.6160 C.ar    1  UNL1        0.0233
     27 C         142.9089  143.6672  162.2876 C.ar    1  UNL1       -0.0260
     28 C         143.7615  144.7129  162.9433 C.3     1  UNL1        0.0305
     29 C         140.9486  145.3852  161.4411 C.3     1  UNL1        0.2352
     30 O         139.6775  145.1596  160.6773 O.3     1  UNL1       -0.4404
     31 C         139.5692  143.6933  160.3803 C.2     1  UNL1        0.3413
     32 O         138.4527  143.0250  159.6341 O.2     1  UNL1       -0.2449
@<TRIPOS>BOND
     1    16    17    1
     2    17    10    1
     3    10    11   ar
     4    11    12   ar
     5    12     9    1
     6     9     7    1
     7     7     8    1
     8     7     1    1
     9     1     2    1
    10     2     3    1
    11     3     4    1
    12     4    20    1
    13    20    21    1
    14    21    22    1
    15    22    23   ar
    16    23    24   ar
    17    24    25   ar
    18    25    26   ar
    19    26    27   ar
    20    27    28    1
    21    26    29    1
    22    29    30    1
    23    30    31    1
    24    31    32    2
    25     4     5    1
    26     5     6    1
    27    12    13   ar
    28    13    14   ar
    29    14    15   ar
    30    15    18    1
    31    18    19    3
    32    15    10   ar
    33     6     1    1
    34    27    22   ar
    35    31    25    1
@<TRIPOS>MOLECULE
*****
 32 35 0 0 0
SMALL
GASTEIGER

@<TRIPOS>ATOM
      1 N         143.1901  139.0910  161.4997 N.3     1  UNL1       -0.2713
      2 C         143.5827  140.4119  160.9069 C.3     1  UNL1        0.0896
      3 C         144.4152  141.3732  161.7024 C.3     1  UNL1        0.0897
      4 N         144.8552  141.0138  163.0906 N.3     1  UNL1       -0.2700
      5 C         144.4627  139.6929  163.6834 C.3     1  UNL1        0.0897
      6 C         143.6302  138.7316  162.8879 C.3     1  UNL1        0.0896
      7 C         142.3576  138.1297  160.7043 C.3     1  UNL1        0.0620
      8 C         143.0205  137.1366  159.7964 C.3     1  UNL1        0.0177
      9 C         140.8622  138.1614  160.8168 C.3     1  UNL1        0.0424
     10 C         138.6155  139.4673  163.8162 C.ar    1  UNL1        0.1479
     11 C         139.2644  139.3753  162.4670 C.ar    1  UNL1        0.0334
     12 C         140.2133  138.2533  162.1660 C.ar    1  UNL1       -0.0178
     13 C         140.5133  137.2232  163.2143 C.ar    1  UNL1       -0.0033
     14 C         139.8644  137.3151  164.5635 C.ar    1  UNL1        0.0130
     15 C         138.9154  138.4372  164.8645 C.ar    1  UNL1        0.1023
     16 C         137.2783  141.5537  163.0359 C.3     1  UNL1        0.2525
     17 O         137.6665  140.5893  164.1172 O.3     1  UNL1       -0.4708
     18 C         138.2665  138.5290  166.2138 C.1     1  UNL1        0.1035
     19 N         137.6177  138.6208  167.5631 N.1     1  UNL1       -0.1907
     20 C         145.6877  141.9751  163.8860 C.3     1  UNL1        0.0769
     21 C         145.0241  143.0424  164.7050 C.3     1  UNL1        0.0433
     22 C         143.6661  143.5488  164.3184 C.ar    1  UNL1       -0.0249
     23 C         143.5111  144.4438  163.1248 C.ar    1  UNL1       -0.0043
     24 C         142.1532  144.9502  162.7383 C.ar    1  UNL1        0.0059
     25 C         140.9501  144.5615  163.5454 C.ar    1  UNL1        0.0748
     26 C         141.1050  143.6664  164.7391 C.ar    1  UNL1        0.0233
     27 C         142.4630  143.1600  165.1256 C.ar    1  UNL1       -0.0260
     28 C         142.6179  142.2649  166.3193 C.3     1  UNL1        0.0305
     29 C         139.7466  143.4544  165.3389 C.3     1  UNL1        0.2352
     30 O         138.7521  144.2184  164.5159 O.3     1  UNL1       -0.4404
     31 C         139.4959  144.9027  163.4075 C.2     1  UNL1        0.3413
     32 O         138.8916  145.7749  162.3473 O.2     1  UNL1       -0.2449
@<TRIPOS>BOND
     1    16    17    1
     2    17    10    1
     3    10    11   ar
     4    11    12   ar
     5    12     9    1
     6     9     7    1
     7     7     8    1
     8     7     1    1
     9     1     2    1
    10     2     3    1
    11     3     4    1
    12     4    20    1
    13    20    21    1
    14    21    22    1
    15    22    23   ar
    16    23    24   ar
    17    24    25   ar
    18    25    26   ar
    19    26    27   ar
    20    27    28    1
    21    26    29    1
    22    29    30    1
    23    30    31    1
    24    31    32    2
    25     4     5    1
    26     5     6    1
    27    12    13   ar
    28    13    14   ar
    29    14    15   ar
    30    15    18    1
    31    18    19    3
    32    15    10   ar
    33     6     1    1
    34    27    22   ar
    35    31    25    1
@<TRIPOS>MOLECULE
*****
 32 35 0 0 0
SMALL
GASTEIGER

@<TRIPOS>ATOM
      1 N         142.4560  142.7519  160.5387 N.3     1  UNL1       -0.2713
      2 C         141.0227  142.5346  160.1534 C.3     1  UNL1        0.0896
      3 C         139.9396  143.3385  160.8095 C.3     1  UNL1        0.0897
      4 N         140.2896  144.3596  161.8510 N.3     1  UNL1       -0.2700
      5 C         141.7228  144.5769  162.2364 C.3     1  UNL1        0.0897
      6 C         142.8060  143.7730  161.5802 C.3     1  UNL1        0.0896
      7 C         143.5393  141.9480  159.8827 C.3     1  UNL1        0.0620
      8 C         144.4805  142.6050  158.9170 C.3     1  UNL1        0.0177
      9 C         143.6813  140.4872  160.1923 C.3     1  UNL1        0.0424
     10 C         142.6492  138.5963  163.5253 C.ar    1  UNL1        0.1479
     11 C         142.6402  139.0636  162.0999 C.ar    1  UNL1        0.0334
     12 C         143.6903  140.0200  161.6176 C.ar    1  UNL1       -0.0178
     13 C         144.7493  140.5091  162.5606 C.ar    1  UNL1       -0.0033
     14 C         144.7583  140.0419  163.9859 C.ar    1  UNL1        0.0130
     15 C         143.7082  139.0855  164.4682 C.ar    1  UNL1        0.1023
     16 C         140.4060  137.3406  163.1492 C.3     1  UNL1        0.2525
     17 O         141.5991  137.6399  164.0077 O.3     1  UNL1       -0.4708
     18 C         143.7173  138.6182  165.8936 C.1     1  UNL1        0.1035
     19 N         143.7262  138.1509  167.3190 N.1     1  UNL1       -0.1907
     20 C         139.2063  145.1635  162.5070 C.3     1  UNL1        0.0769
     21 C         138.2414  144.4985  163.4434 C.3     1  UNL1        0.0433
     22 C         138.7229  143.4357  164.3863 C.ar    1  UNL1       -0.0249
     23 C         139.7044  143.7804  165.4668 C.ar    1  UNL1       -0.0043
     24 C         140.1858  142.7178  166.4096 C.ar    1  UNL1        0.0059
     25 C         139.6856  141.3103  166.2719 C.ar    1  UNL1        0.0748
     26 C         138.7041  140.9656  165.1913 C.ar    1  UNL1        0.0233
     27 C         138.2227  142.0282  164.2484 C.ar    1  UNL1       -0.0260
     28 C         137.2411  141.6836  163.1678 C.3     1  UNL1        0.0305
     29 C         138.3904  139.5027  165.2993 C.3     1  UNL1        0.2352
     30 O         139.1782  138.9434  166.4468 O.3     1  UNL1       -0.4404
     31 C         139.9787  140.0605  167.0478 C.2     1  UNL1        0.3413
     32 O         140.9088  139.9476  168.2192 O.2     1  UNL1       -0.2449
@<TRIPOS>BOND
     1    16    17    1
     2    17    10    1
     3    10    11   ar
     4    11    12   ar
     5    12     9    1
     6     9     7    1
     7     7     8    1
     8     7     1    1
     9     1     2    1
    10     2     3    1
    11     3     4    1
    12     4    20    1
    13    20    21    1
    14    21    22    1
    15    22    23   ar
    16    23    24   ar
    17    24    25   ar
    18    25    26   ar
    19    26    27   ar
    20    27    28    1
    21    26    29    1
    22    29    30    1
    23    30    31    1
    24    31    32    2
    25     4     5    1
    26     5     6    1
    27    12    13   ar
    28    13    14   ar
    29    14    15   ar
    30    15    18    1
    31    18    19    3
    32    15    10   ar
    33     6     1    1
    34    27    22   ar
    35    31    25    1
@<TRIPOS>MOLECULE
*****
 32 35 0 0 0
SMALL
GASTEIGER

@<TRIPOS>ATOM
      1 N         140.0915  139.2229  165.5321 N.3     1  UNL1       -0.2713
      2 C         140.6475  138.4255  164.3896 C.3     1  UNL1        0.0896
      3 C         142.1318  138.3188  164.2018 C.3     1  UNL1        0.0897
      4 N         143.0602  139.0094  165.1563 N.3     1  UNL1       -0.2700
      5 C         142.5043  139.8067  166.2988 C.3     1  UNL1        0.0897
      6 C         141.0199  139.9134  166.4866 C.3     1  UNL1        0.0896
      7 C         138.6071  139.3296  165.7200 C.3     1  UNL1        0.0620
      8 C         137.9696  138.8018  166.9711 C.3     1  UNL1        0.0177
      9 C         137.7603  139.9642  164.6570 C.3     1  UNL1        0.0424
     10 C         138.2873  142.9186  162.0602 C.ar    1  UNL1        0.1479
     11 C         137.8990  141.5881  162.6338 C.ar    1  UNL1        0.0334
     12 C         138.1486  141.2947  164.0834 C.ar    1  UNL1       -0.0178
     13 C         138.7866  142.3317  164.9595 C.ar    1  UNL1       -0.0033
     14 C         139.1750  143.6621  164.3859 C.ar    1  UNL1        0.0130
     15 C         138.9253  143.9556  162.9362 C.ar    1  UNL1        0.1023
     16 C         138.8923  142.5710  159.5575 C.3     1  UNL1        0.2525
     17 O         138.0377  143.2121  160.6105 O.3     1  UNL1       -0.4708
     18 C         139.3137  145.2862  162.3627 C.1     1  UNL1        0.1035
     19 N         139.7020  146.6167  161.7892 N.1     1  UNL1       -0.1907
     20 C         144.5445  138.9026  164.9684 C.3     1  UNL1        0.0769
     21 C         145.2971  140.0120  164.2954 C.3     1  UNL1        0.0433
     22 C         144.6430  140.8086  163.2054 C.ar    1  UNL1       -0.0249
     23 C         144.4539  140.2049  161.8455 C.ar    1  UNL1       -0.0043
     24 C         143.7998  141.0014  160.7556 C.ar    1  UNL1        0.0059
     25 C         143.3349  142.4017  161.0258 C.ar    1  UNL1        0.0748
     26 C         143.5240  143.0055  162.3858 C.ar    1  UNL1        0.0233
     27 C         144.1781  142.2089  163.4757 C.ar    1  UNL1       -0.0260
     28 C         144.3672  142.8127  164.8358 C.3     1  UNL1        0.0305
     29 C         142.9681  144.3983  162.3561 C.3     1  UNL1        0.2352
     30 O         142.4354  144.6553  160.9776 O.3     1  UNL1       -0.4404
     31 C         142.6621  143.4214  160.1555 C.2     1  UNL1        0.3413
     32 O         142.2825  143.2391  158.7158 O.2     1  UNL1       -0.2449
@<TRIPOS>BOND
     1    16    17    1
     2    17    10    1
     3    10    11   ar
     4    11    12   ar
     5    12     9    1
     6     9     7    1
     7     7     8    1
     8     7     1    1
     9     1     2    1
    10     2     3    1
    11     3     4    1
    12     4    20    1
    13    20    21    1
    14    21    22    1
    15    22    23   ar
    16    23    24   ar
    17    24    25   ar
    18    25    26   ar
    19    26    27   ar
    20    27    28    1
    21    26    29    1
    22    29    30    1
    23    30    31    1
    24    31    32    2
    25     4     5    1
    26     5     6    1
    27    12    13   ar
    28    13    14   ar
    29    14    15   ar
    30    15    18    1
    31    18    19    3
    32    15    10   ar
    33     6     1    1
    34    27    22   ar
    35    31    25    1
@<TRIPOS>MOLECULE
*****
 32 35 0 0 0
SMALL
GASTEIGER

@<TRIPOS>ATOM
      1 N         140.2279  139.9237  166.1257 N.3     1  UNL1       -0.2713
      2 C         139.9925  141.3457  166.5414 C.3     1  UNL1        0.0896
      3 C         141.1417  142.3074  166.6088 C.3     1  UNL1        0.0897
      4 N         142.5262  141.8472  166.2607 N.3     1  UNL1       -0.2700
      5 C         142.7617  140.4252  165.8451 C.3     1  UNL1        0.0897
      6 C         141.6124  139.4636  165.7776 C.3     1  UNL1        0.0896
      7 C         139.0787  138.9620  166.0582 C.3     1  UNL1        0.0620
      8 C         138.0726  138.9164  167.1698 C.3     1  UNL1        0.0177
      9 C         138.9358  138.0459  164.8791 C.3     1  UNL1        0.0424
     10 C         137.9165  140.5549  161.9782 C.ar    1  UNL1        0.1479
     11 C         138.1306  139.9850  163.3491 C.ar    1  UNL1        0.0334
     12 C         138.7218  138.6156  163.5082 C.ar    1  UNL1       -0.0178
     13 C         139.0989  137.8161  162.2964 C.ar    1  UNL1       -0.0033
     14 C         138.8849  138.3859  160.9255 C.ar    1  UNL1        0.0130
     15 C         138.2937  139.7553  160.7663 C.ar    1  UNL1        0.1023
     16 C         138.1662  143.1389  162.0788 C.3     1  UNL1        0.2525
     17 O         137.3254  141.9243  161.8189 O.3     1  UNL1       -0.4708
     18 C         138.0797  140.3251  159.3953 C.1     1  UNL1        0.1035
     19 N         137.8656  140.8947  158.0243 N.1     1  UNL1       -0.1907
     20 C         143.6754  142.8089  166.3283 C.3     1  UNL1        0.0769
     21 C         144.3032  143.3173  165.0644 C.3     1  UNL1        0.0433
     22 C         143.4375  143.7462  163.9168 C.ar    1  UNL1       -0.0249
     23 C         142.3350  144.7386  164.1391 C.ar    1  UNL1       -0.0043
     24 C         141.4694  145.1676  162.9916 C.ar    1  UNL1        0.0059
     25 C         141.7064  144.6041  161.6218 C.ar    1  UNL1        0.0748
     26 C         142.8090  143.6117  161.3995 C.ar    1  UNL1        0.0233
     27 C         143.6746  143.1827  162.5470 C.ar    1  UNL1       -0.0260
     28 C         144.7772  142.1902  162.3248 C.3     1  UNL1        0.0305
     29 C         142.8046  143.2311  159.9486 C.3     1  UNL1        0.2352
     30 O         141.6992  143.9883  159.2742 O.3     1  UNL1       -0.4404
     31 C         141.0205  144.8369  160.3083 C.2     1  UNL1        0.3413
     32 O         139.8598  145.7568  160.0705 O.2     1  UNL1       -0.2449
@<TRIPOS>BOND
     1    16    17    1
     2    17    10    1
     3    10    11   ar
     4    11    12   ar
     5    12     9    1
     6     9     7    1
     7     7     8    1
     8     7     1    1
     9     1     2    1
    10     2     3    1
    11     3     4    1
    12     4    20    1
    13    20    21    1
    14    21    22    1
    15    22    23   ar
    16    23    24   ar
    17    24    25   ar
    18    25    26   ar
    19    26    27   ar
    20    27    28    1
    21    26    29    1
    22    29    30    1
    23    30    31    1
    24    31    32    2
    25     4     5    1
    26     5     6    1
    27    12    13   ar
    28    13    14   ar
    29    14    15   ar
    30    15    18    1
    31    18    19    3
    32    15    10   ar
    33     6     1    1
    34    27    22   ar
    35    31    25    1
@<TRIPOS>MOLECULE
*****
 32 35 0 0 0
SMALL
GASTEIGER

@<TRIPOS>ATOM
      1 N         139.7167  142.3627  165.6255 N.3     1  UNL1       -0.2713
      2 C         139.2890  141.0159  166.1287 C.3     1  UNL1        0.0896
      3 C         140.3110  140.0530  166.6560 C.3     1  UNL1        0.0897
      4 N         141.7609  140.4367  166.6801 N.3     1  UNL1       -0.2700
      5 C         142.1888  141.7835  166.1769 C.3     1  UNL1        0.0897
      6 C         141.1666  142.7465  165.6496 C.3     1  UNL1        0.0896
      7 C         138.6947  143.3257  165.0982 C.3     1  UNL1        0.0620
      8 C         138.8320  144.7930  165.3782 C.3     1  UNL1        0.0177
      9 C         137.5353  142.8215  164.2910 C.3     1  UNL1        0.0424
     10 C         138.3233  142.2939  160.4374 C.ar    1  UNL1        0.1479
     11 C         138.0827  142.9681  161.7555 C.ar    1  UNL1        0.0334
     12 C         137.7760  142.1472  162.9729 C.ar    1  UNL1       -0.0178
     13 C         137.7099  140.6521  162.8721 C.ar    1  UNL1       -0.0033
     14 C         137.9505  139.9778  161.5540 C.ar    1  UNL1        0.0130
     15 C         138.2572  140.7988  160.3366 C.ar    1  UNL1        0.1023
     16 C         140.0099  143.6663  159.0155 C.3     1  UNL1        0.2525
     17 O         138.6300  143.1148  159.2199 O.3     1  UNL1       -0.4708
     18 C         138.4978  140.1244  159.0185 C.1     1  UNL1        0.1035
     19 N         138.7384  139.4500  157.7004 N.1     1  UNL1       -0.1907
     20 C         142.7829  139.4737  167.2074 C.3     1  UNL1        0.0769
     21 C         143.4408  138.4957  166.2796 C.3     1  UNL1        0.0433
     22 C         143.4315  138.7426  164.8000 C.ar    1  UNL1       -0.0249
     23 C         144.5013  139.5870  164.1739 C.ar    1  UNL1       -0.0043
     24 C         144.4921  139.8340  162.6944 C.ar    1  UNL1        0.0059
     25 C         143.4128  139.2364  161.8411 C.ar    1  UNL1        0.0748
     26 C         142.3429  138.3919  162.4672 C.ar    1  UNL1        0.0233
     27 C         142.3522  138.1450  163.9467 C.ar    1  UNL1       -0.0260
     28 C         141.2822  137.3005  164.5730 C.3     1  UNL1        0.0305
     29 C         141.4145  137.9384  161.3798 C.3     1  UNL1        0.2352
     30 O         141.9107  138.5026  160.0816 O.3     1  UNL1       -0.4404
     31 C         143.1458  139.3048  160.3666 C.2     1  UNL1        0.3413
     32 O         143.9691  140.0454  159.3549 O.2     1  UNL1       -0.2449
@<TRIPOS>BOND
     1    16    17    1
     2    17    10    1
     3    10    11   ar
     4    11    12   ar
     5    12     9    1
     6     9     7    1
     7     7     8    1
     8     7     1    1
     9     1     2    1
    10     2     3    1
    11     3     4    1
    12     4    20    1
    13    20    21    1
    14    21    22    1
    15    22    23   ar
    16    23    24   ar
    17    24    25   ar
    18    25    26   ar
    19    26    27   ar
    20    27    28    1
    21    26    29    1
    22    29    30    1
    23    30    31    1
    24    31    32    2
    25     4     5    1
    26     5     6    1
    27    12    13   ar
    28    13    14   ar
    29    14    15   ar
    30    15    18    1
    31    18    19    3
    32    15    10   ar
    33     6     1    1
    34    27    22   ar
    35    31    25    1
@<TRIPOS>MOLECULE
*****
 32 35 0 0 0
SMALL
GASTEIGER

@<TRIPOS>ATOM
      1 N         143.3613  140.9949  161.9561 N.3     1  UNL1       -0.2713
      2 C         144.5901  141.3470  162.7411 C.3     1  UNL1        0.0896
      3 C         144.8356  140.7089  164.0762 C.3     1  UNL1        0.0897
      4 N         143.8523  139.7187  164.6264 N.3     1  UNL1       -0.2700
      5 C         142.6235  139.3666  163.8415 C.3     1  UNL1        0.0897
      6 C         142.3780  140.0047  162.5063 C.3     1  UNL1        0.0896
      7 C         143.1157  141.6330  160.6210 C.3     1  UNL1        0.0620
      8 C         143.5226  140.9226  159.3640 C.3     1  UNL1        0.0177
      9 C         142.4633  142.9814  160.5428 C.3     1  UNL1        0.0424
     10 C         139.2777  143.6042  162.8261 C.ar    1  UNL1        0.1479
     11 C         140.1404  143.1219  161.6978 C.ar    1  UNL1        0.0334
     12 C         141.6007  143.4638  161.6711 C.ar    1  UNL1       -0.0178
     13 C         142.1982  144.2880  162.7727 C.ar    1  UNL1       -0.0033
     14 C         141.3355  144.7704  163.9010 C.ar    1  UNL1        0.0130
     15 C         139.8752  144.4285  163.9276 C.ar    1  UNL1        0.1023
     16 C         137.3809  141.8601  163.1580 C.3     1  UNL1        0.2525
     17 O         137.8173  143.2623  162.8528 O.3     1  UNL1       -0.4708
     18 C         139.0126  144.9109  165.0560 C.1     1  UNL1        0.1035
     19 N         138.1498  145.3933  166.1843 N.1     1  UNL1       -0.1907
     20 C         144.0979  139.0806  165.9615 C.3     1  UNL1        0.0769
     21 C         142.9455  138.7871  166.8758 C.3     1  UNL1        0.0433
     22 C         142.3332  139.8894  167.6884 C.ar    1  UNL1       -0.0249
     23 C         141.8420  141.1352  167.0128 C.ar    1  UNL1       -0.0043
     24 C         141.2297  142.2374  167.8254 C.ar    1  UNL1        0.0059
     25 C         141.1087  142.0938  169.3136 C.ar    1  UNL1        0.0748
     26 C         141.6000  140.8479  169.9892 C.ar    1  UNL1        0.0233
     27 C         142.2122  139.7457  169.1767 C.ar    1  UNL1       -0.0260
     28 C         142.7035  138.4997  169.8522 C.3     1  UNL1        0.0305
     29 C         141.3492  140.9892  171.4613 C.3     1  UNL1        0.2352
     30 O         140.7029  142.3224  171.6955 O.3     1  UNL1       -0.4404
     31 C         140.5543  143.0051  170.3681 C.2     1  UNL1        0.3413
     32 O         139.9563  144.3610  170.1361 O.2     1  UNL1       -0.2449
@<TRIPOS>BOND
     1    16    17    1
     2    17    10    1
     3    10    11   ar
     4    11    12   ar
     5    12     9    1
     6     9     7    1
     7     7     8    1
     8     7     1    1
     9     1     2    1
    10     2     3    1
    11     3     4    1
    12     4    20    1
    13    20    21    1
    14    21    22    1
    15    22    23   ar
    16    23    24   ar
    17    24    25   ar
    18    25    26   ar
    19    26    27   ar
    20    27    28    1
    21    26    29    1
    22    29    30    1
    23    30    31    1
    24    31    32    2
    25     4     5    1
    26     5     6    1
    27    12    13   ar
    28    13    14   ar
    29    14    15   ar
    30    15    18    1
    31    18    19    3
    32    15    10   ar
    33     6     1    1
    34    27    22   ar
    35    31    25    1
@<TRIPOS>MOLECULE
*****
 32 35 0 0 0
SMALL
GASTEIGER

@<TRIPOS>ATOM
      1 N         138.5712  140.0188  165.6593 N.3     1  UNL1       -0.2713
      2 C         137.7987  140.6520  164.5401 C.3     1  UNL1        0.0896
      3 C         138.0673  142.0767  164.1556 C.3     1  UNL1        0.0897
      4 N         139.1083  142.8684  164.8901 N.3     1  UNL1       -0.2700
      5 C         139.8809  142.2353  166.0092 C.3     1  UNL1        0.0897
      6 C         139.6123  140.8105  166.3937 C.3     1  UNL1        0.0896
      7 C         138.3028  138.5941  166.0439 C.3     1  UNL1        0.0620
      8 C         137.4249  138.2876  167.2210 C.3     1  UNL1        0.0177
      9 C         138.9121  137.4757  165.2514 C.3     1  UNL1        0.0424
     10 C         142.3248  138.3648  163.4314 C.ar    1  UNL1        0.1479
     11 C         141.3339  138.0623  164.5160 C.ar    1  UNL1        0.0334
     12 C         139.9030  137.7782  164.1667 C.ar    1  UNL1       -0.0178
     13 C         139.4631  137.7967  162.7328 C.ar    1  UNL1       -0.0033
     14 C         140.4541  138.0992  161.6482 C.ar    1  UNL1        0.0130
     15 C         141.8849  138.3833  161.9975 C.ar    1  UNL1        0.1023
     16 C         144.0824  139.4933  164.9765 C.3     1  UNL1        0.2525
     17 O         143.7557  138.6489  163.7806 O.3     1  UNL1       -0.4708
     18 C         142.8759  138.6858  160.9127 C.1     1  UNL1        0.1035
     19 N         143.8668  138.9882  159.8280 N.1     1  UNL1       -0.1907
     20 C         139.3768  144.2932  164.5055 C.3     1  UNL1        0.0769
     21 C         140.7891  144.7784  164.3639 C.3     1  UNL1        0.0433
     22 C         141.6621  144.2373  163.2706 C.ar    1  UNL1       -0.0249
     23 C         141.2989  144.4735  161.8346 C.ar    1  UNL1       -0.0043
     24 C         142.1718  143.9323  160.7414 C.ar    1  UNL1        0.0059
     25 C         143.4079  143.1550  161.0842 C.ar    1  UNL1        0.0748
     26 C         143.7712  142.9187  162.5203 C.ar    1  UNL1        0.0233
     27 C         142.8983  143.4599  163.6135 C.ar    1  UNL1       -0.0260
     28 C         143.2615  143.2237  165.0496 C.3     1  UNL1        0.0305
     29 C         145.0415  142.1217  162.5521 C.3     1  UNL1        0.2352
     30 O         145.4634  141.8654  161.1356 O.3     1  UNL1       -0.4404
     31 C         144.4538  142.5040  160.2285 C.2     1  UNL1        0.3413
     32 O         144.4847  142.4934  158.7288 O.2     1  UNL1       -0.2449
@<TRIPOS>BOND
     1    16    17    1
     2    17    10    1
     3    10    11   ar
     4    11    12   ar
     5    12     9    1
     6     9     7    1
     7     7     8    1
     8     7     1    1
     9     1     2    1
    10     2     3    1
    11     3     4    1
    12     4    20    1
    13    20    21    1
    14    21    22    1
    15    22    23   ar
    16    23    24   ar
    17    24    25   ar
    18    25    26   ar
    19    26    27   ar
    20    27    28    1
    21    26    29    1
    22    29    30    1
    23    30    31    1
    24    31    32    2
    25     4     5    1
    26     5     6    1
    27    12    13   ar
    28    13    14   ar
    29    14    15   ar
    30    15    18    1
    31    18    19    3
    32    15    10   ar
    33     6     1    1
    34    27    22   ar
    35    31    25    1
@<TRIPOS>MOLECULE
*****
 32 35 0 0 0
SMALL
GASTEIGER

@<TRIPOS>ATOM
      1 N         141.0513  139.8974  161.6344 N.3     1  UNL1       -0.2713
      2 C         140.0716  139.0985  162.4420 C.3     1  UNL1        0.0896
      3 C         140.4652  138.5692  163.7891 C.3     1  UNL1        0.0897
      4 N         141.8385  138.8387  164.3288 N.3     1  UNL1       -0.2700
      5 C         142.8183  139.6376  163.5214 C.3     1  UNL1        0.0897
      6 C         142.4246  140.1669  162.1742 C.3     1  UNL1        0.0896
      7 C         140.6577  140.4268  160.2873 C.3     1  UNL1        0.0620
      8 C         140.9363  139.6200  159.0538 C.3     1  UNL1        0.0177
      9 C         139.9855  141.7629  160.1736 C.3     1  UNL1        0.0424
     10 C         140.2468  144.1172  163.3577 C.ar    1  UNL1        0.1479
     11 C         140.6264  143.3608  162.1193 C.ar    1  UNL1        0.0334
     12 C         139.6058  142.5193  161.4120 C.ar    1  UNL1       -0.0178
     13 C         138.2056  142.4341  161.9432 C.ar    1  UNL1       -0.0033
     14 C         137.8260  143.1905  163.1816 C.ar    1  UNL1        0.0130
     15 C         138.8466  144.0321  163.8889 C.ar    1  UNL1        0.1023
     16 C         142.6794  145.0067  163.5611 C.3     1  UNL1        0.2525
     17 O         141.2674  144.9588  164.0650 O.3     1  UNL1       -0.4708
     18 C         138.4669  144.7885  165.1274 C.1     1  UNL1        0.1035
     19 N         138.0872  145.5450  166.3658 N.1     1  UNL1       -0.1907
     20 C         142.2321  138.3094  165.6760 C.3     1  UNL1        0.0769
     21 C         143.0459  139.1585  166.6070 C.3     1  UNL1        0.0433
     22 C         142.3792  140.2221  167.4282 C.ar    1  UNL1       -0.0249
     23 C         141.9099  141.4889  166.7764 C.ar    1  UNL1       -0.0043
     24 C         141.2432  142.5524  167.5976 C.ar    1  UNL1        0.0059
     25 C         141.0458  142.3491  169.0706 C.ar    1  UNL1        0.0748
     26 C         141.5151  141.0823  169.7224 C.ar    1  UNL1        0.0233
     27 C         142.1818  140.0187  168.9013 C.ar    1  UNL1       -0.0260
     28 C         142.6512  138.7518  169.5530 C.3     1  UNL1        0.0305
     29 C         141.1857  141.1631  171.1836 C.3     1  UNL1        0.2352
     30 O         140.5128  142.4800  171.4348 O.3     1  UNL1       -0.4404
     31 C         140.4263  143.2130  170.1289 C.2     1  UNL1        0.3413
     32 O         139.8258  144.5713  169.9184 O.2     1  UNL1       -0.2449
@<TRIPOS>BOND
     1    16    17    1
     2    17    10    1
     3    10    11   ar
     4    11    12   ar
     5    12     9    1
     6     9     7    1
     7     7     8    1
     8     7     1    1
     9     1     2    1
    10     2     3    1
    11     3     4    1
    12     4    20    1
    13    20    21    1
    14    21    22    1
    15    22    23   ar
    16    23    24   ar
    17    24    25   ar
    18    25    26   ar
    19    26    27   ar
    20    27    28    1
    21    26    29    1
    22    29    30    1
    23    30    31    1
    24    31    32    2
    25     4     5    1
    26     5     6    1
    27    12    13   ar
    28    13    14   ar
    29    14    15   ar
    30    15    18    1
    31    18    19    3
    32    15    10   ar
    33     6     1    1
    34    27    22   ar
    35    31    25    1
