@<TRIPOS>MOLECULE
*****
 33 36 0 0 0
SMALL
GASTEIGER

@<TRIPOS>ATOM
      1 C         142.4684  140.3763  168.2527 C.3     1  UNL1        0.0782
      2 C         142.8773  141.8180  168.3175 C.3     1  UNL1        0.0372
      3 C         143.4635  142.4864  167.1093 C.3     1  UNL1        0.0741
      4 N         143.6408  141.7130  165.8363 N.3     1  UNL1       -0.2676
      5 C         143.2318  140.2713  165.7715 C.3     1  UNL1        0.0741
      6 C         142.6456  139.6029  166.9797 C.3     1  UNL1        0.0372
      7 C         142.7280  138.7937  170.2967 C.3     1  UNL1        0.1148
      8 N         141.8822  139.7080  169.4609 N.am    1  UNL1       -0.2790
      9 C         140.4501  139.9540  169.8332 C.2     1  UNL1        0.2301
     10 O         139.8639  139.2856  171.0414 O.2     1  UNL1       -0.2745
     11 C         139.6042  140.8683  168.9975 C.3     1  UNL1        0.1116
     12 C         139.2884  140.5073  167.5761 C.ar    1  UNL1       -0.0130
     13 C         138.6148  139.2036  167.2654 C.ar    1  UNL1       -0.0022
     14 C         138.2990  138.8427  165.8441 C.ar    1  UNL1        0.0190
     15 C         138.6568  139.7855  164.7337 C.ar    1  UNL1        0.0862
     16 C         139.3304  141.0892  165.0444 C.ar    1  UNL1        0.0190
     17 C         139.6462  141.4501  166.4657 C.ar    1  UNL1       -0.0022
     18 N         138.3410  139.4245  163.3124 N.ar    1  UNL1       -0.1886
     19 C         138.5848  138.0931  162.6658 C.ar    1  UNL1        0.2258
     20 N         138.1204  138.1773  161.2420 N.ar    1  UNL1       -0.1045
     21 N         137.5896  139.5607  161.0086 N.ar    1  UNL1       -0.0222
     22 N         137.7259  140.3315  162.2882 N.ar    1  UNL1       -0.0385
     23 C         144.2270  142.3814  164.6282 C.3     1  UNL1        0.1186
     24 C         143.3352  143.1116  163.6682 C.ar    1  UNL1        0.0752
     25 C         142.1823  143.9212  164.1833 C.ar    1  UNL1        0.0161
     26 C         141.2905  144.6514  163.2233 C.ar    1  UNL1        0.0067
     27 C         141.5515  144.5720  161.7484 C.ar    1  UNL1        0.0905
     28 C         142.7045  143.7623  161.2334 C.ar    1  UNL1        0.1023
     29 N         143.5963  143.0321  162.1933 N.ar    1  UNL1       -0.2468
     30 C         140.6597  145.3021  160.7885 C.3     1  UNL1        0.4200
     31 F         139.7679  146.0323  159.8285 F       1  UNL1       -0.1658
     32 F         140.2963  146.2778  161.8682 F       1  UNL1       -0.1658
     33 F         141.0231  144.3264  159.7087 F       1  UNL1       -0.1658
@<TRIPOS>BOND
     1     7     8    1
     2     8     9   am
     3     9    10    2
     4     9    11    1
     5    11    12    1
     6    12    13   ar
     7    13    14   ar
     8    14    15   ar
     9    15    18    1
    10    18    19   ar
    11    19    20   ar
    12    20    21   ar
    13    21    22   ar
    14    15    16   ar
    15    16    17   ar
    16     8     1    1
    17     1     2    1
    18     2     3    1
    19     3     4    1
    20     4    23    1
    21    23    24    1
    22    24    25   ar
    23    25    26   ar
    24    26    27   ar
    25    27    30    1
    26    30    31    1
    27    30    32    1
    28    30    33    1
    29    27    28   ar
    30    28    29   ar
    31     4     5    1
    32     5     6    1
    33    17    12   ar
    34     6     1    1
    35    22    18   ar
    36    29    24   ar
@<TRIPOS>MOLECULE
*****
 33 36 0 0 0
SMALL
GASTEIGER

@<TRIPOS>ATOM
      1 C         142.2197  140.8440  161.3312 C.3     1  UNL1        0.0782
      2 C         141.0316  141.3180  162.1144 C.3     1  UNL1        0.0372
      3 C         141.2217  141.9186  163.4757 C.3     1  UNL1        0.0741
      4 N         142.6000  142.0453  164.0537 N.3     1  UNL1       -0.2676
      5 C         143.7883  141.5714  163.2704 C.3     1  UNL1        0.0741
      6 C         143.5981  140.9707  161.9092 C.3     1  UNL1        0.0372
      7 C         141.7583  141.1295  158.7904 C.3     1  UNL1        0.1148
      8 N         142.0296  140.2434  159.9699 N.am    1  UNL1       -0.2790
      9 C         142.1108  138.7566  159.7881 C.2     1  UNL1        0.2301
     10 O         141.9206  138.1560  158.4268 O.2     1  UNL1       -0.2745
     11 C         142.3821  137.8706  160.9676 C.3     1  UNL1        0.1116
     12 C         141.4729  137.9099  162.1601 C.ar    1  UNL1       -0.0130
     13 C         142.0515  137.9655  163.5428 C.ar    1  UNL1       -0.0022
     14 C         141.1424  138.0048  164.7352 C.ar    1  UNL1        0.0190
     15 C         139.6546  137.9885  164.5449 C.ar    1  UNL1        0.0862
     16 C         139.0760  137.9329  163.1621 C.ar    1  UNL1        0.0190
     17 C         139.9851  137.8936  161.9697 C.ar    1  UNL1       -0.0022
     18 N         138.7454  138.0279  165.7374 N.ar    1  UNL1       -0.1886
     19 C         138.6388  139.1490  166.7282 C.ar    1  UNL1        0.2258
     20 N         137.6108  138.7671  167.7515 N.ar    1  UNL1       -0.1045
     21 N         137.0820  137.4098  167.3932 N.ar    1  UNL1       -0.0222
     22 N         137.7833  136.9530  166.1483 N.ar    1  UNL1       -0.0385
     23 C         142.7901  142.6459  165.4150 C.3     1  UNL1        0.1186
     24 C         142.1631  141.9992  166.6144 C.ar    1  UNL1        0.0752
     25 C         142.6767  140.6798  167.1094 C.ar    1  UNL1        0.0161
     26 C         142.0496  140.0330  168.3088 C.ar    1  UNL1        0.0067
     27 C         140.9089  140.7058  169.0131 C.ar    1  UNL1        0.0905
     28 C         140.3952  142.0253  168.5181 C.ar    1  UNL1        0.1023
     29 N         141.0223  142.6720  167.3187 N.ar    1  UNL1       -0.2468
     30 C         140.2818  140.0591  170.2125 C.3     1  UNL1        0.4200
     31 F         139.6547  139.4124  171.4118 F       1  UNL1       -0.1658
     32 F         141.3872  139.0457  170.2440 F       1  UNL1       -0.1658
     33 F         139.1764  141.0724  170.1809 F       1  UNL1       -0.1658
@<TRIPOS>BOND
     1     7     8    1
     2     8     9   am
     3     9    10    2
     4     9    11    1
     5    11    12    1
     6    12    13   ar
     7    13    14   ar
     8    14    15   ar
     9    15    18    1
    10    18    19   ar
    11    19    20   ar
    12    20    21   ar
    13    21    22   ar
    14    15    16   ar
    15    16    17   ar
    16     8     1    1
    17     1     2    1
    18     2     3    1
    19     3     4    1
    20     4    23    1
    21    23    24    1
    22    24    25   ar
    23    25    26   ar
    24    26    27   ar
    25    27    30    1
    26    30    31    1
    27    30    32    1
    28    30    33    1
    29    27    28   ar
    30    28    29   ar
    31     4     5    1
    32     5     6    1
    33    17    12   ar
    34     6     1    1
    35    22    18   ar
    36    29    24   ar
@<TRIPOS>MOLECULE
*****
 33 36 0 0 0
SMALL
GASTEIGER

@<TRIPOS>ATOM
      1 C         140.3061  142.0583  168.6884 C.3     1  UNL1        0.0782
      2 C         139.7362  140.8043  169.2821 C.3     1  UNL1        0.0372
      3 C         139.0559  139.7991  168.4008 C.3     1  UNL1        0.0741
      4 N         138.9454  140.0480  166.9257 N.3     1  UNL1       -0.2676
      5 C         139.5154  141.3021  166.3319 C.3     1  UNL1        0.0741
      6 C         140.1957  142.3072  167.2133 C.3     1  UNL1        0.0372
      7 C         140.2378  144.2736  170.0440 C.3     1  UNL1        0.1148
      8 N         140.9865  143.0635  169.5697 N.am    1  UNL1       -0.2790
      9 C         142.4156  142.8585  169.9768 C.2     1  UNL1        0.2301
     10 O         143.0960  143.8637  170.8581 O.2     1  UNL1       -0.2745
     11 C         143.1643  141.6484  169.5025 C.3     1  UNL1        0.1116
     12 C         143.2178  141.3255  168.0386 C.ar    1  UNL1       -0.0130
     13 C         142.9223  139.9328  167.5665 C.ar    1  UNL1       -0.0022
     14 C         142.9758  139.6100  166.1026 C.ar    1  UNL1        0.0190
     15 C         143.3248  140.6799  165.1109 C.ar    1  UNL1        0.0862
     16 C         143.6203  142.0726  165.5831 C.ar    1  UNL1        0.0190
     17 C         143.5668  142.3954  167.0469 C.ar    1  UNL1       -0.0022
     18 N         143.3783  140.3571  163.6470 N.ar    1  UNL1       -0.1886
     19 C         144.2625  139.3312  163.0021 C.ar    1  UNL1        0.2258
     20 N         143.9877  139.3435  161.5276 N.ar    1  UNL1       -0.1045
     21 N         142.9337  140.3770  161.2611 N.ar    1  UNL1       -0.0222
     22 N         142.5571  141.0034  162.5710 N.ar    1  UNL1       -0.0385
     23 C         138.2651  139.0428  166.0444 C.3     1  UNL1        0.1186
     24 C         138.6976  138.8823  164.6171 C.ar    1  UNL1        0.0752
     25 C         139.8010  137.9271  164.2708 C.ar    1  UNL1        0.0161
     26 C         140.2335  137.7666  162.8434 C.ar    1  UNL1        0.0067
     27 C         139.5626  138.5612  161.7625 C.ar    1  UNL1        0.0905
     28 C         138.4591  139.5164  162.1090 C.ar    1  UNL1        0.1023
     29 N         138.0266  139.6769  163.5362 N.ar    1  UNL1       -0.2468
     30 C         139.9950  138.4007  160.3353 C.3     1  UNL1        0.4200
     31 F         140.4275  138.2402  158.9080 F       1  UNL1       -0.1658
     32 F         138.7154  139.0346  159.8762 F       1  UNL1       -0.1658
     33 F         141.2747  137.7669  160.7943 F       1  UNL1       -0.1658
@<TRIPOS>BOND
     1     7     8    1
     2     8     9   am
     3     9    10    2
     4     9    11    1
     5    11    12    1
     6    12    13   ar
     7    13    14   ar
     8    14    15   ar
     9    15    18    1
    10    18    19   ar
    11    19    20   ar
    12    20    21   ar
    13    21    22   ar
    14    15    16   ar
    15    16    17   ar
    16     8     1    1
    17     1     2    1
    18     2     3    1
    19     3     4    1
    20     4    23    1
    21    23    24    1
    22    24    25   ar
    23    25    26   ar
    24    26    27   ar
    25    27    30    1
    26    30    31    1
    27    30    32    1
    28    30    33    1
    29    27    28   ar
    30    28    29   ar
    31     4     5    1
    32     5     6    1
    33    17    12   ar
    34     6     1    1
    35    22    18   ar
    36    29    24   ar
@<TRIPOS>MOLECULE
*****
 33 36 0 0 0
SMALL
GASTEIGER

@<TRIPOS>ATOM
      1 C         141.3819  142.5813  167.8292 C.3     1  UNL1        0.0782
      2 C         142.8460  142.3666  167.5839 C.3     1  UNL1        0.0372
      3 C         143.3991  142.4856  166.1946 C.3     1  UNL1        0.0741
      4 N         142.4880  142.8192  165.0507 N.3     1  UNL1       -0.2676
      5 C         141.0238  143.0340  165.2960 C.3     1  UNL1        0.0741
      6 C         140.4708  142.9150  166.6852 C.3     1  UNL1        0.0372
      7 C         140.4547  143.6962  169.9849 C.3     1  UNL1        0.1148
      8 N         140.8289  142.4623  169.2184 N.am    1  UNL1       -0.2790
      9 C         140.6499  141.1094  169.8411 C.2     1  UNL1        0.2301
     10 O         140.0969  140.9905  171.2304 O.2     1  UNL1       -0.2745
     11 C         141.0241  139.8756  169.0746 C.3     1  UNL1        0.1116
     12 C         140.4650  139.6473  167.7015 C.ar    1  UNL1       -0.0130
     13 C         138.9831  139.7032  167.4763 C.ar    1  UNL1       -0.0022
     14 C         138.4241  139.4749  166.1032 C.ar    1  UNL1        0.0190
     15 C         139.3469  139.1907  164.9554 C.ar    1  UNL1        0.0862
     16 C         140.8289  139.1348  165.1806 C.ar    1  UNL1        0.0190
     17 C         141.3879  139.3631  166.5537 C.ar    1  UNL1       -0.0022
     18 N         138.7878  138.9624  163.5823 N.ar    1  UNL1       -0.1886
     19 C         137.9750  139.9409  162.7874 C.ar    1  UNL1        0.2258
     20 N         137.6282  139.2988  161.4769 N.ar    1  UNL1       -0.1045
     21 N         138.2268  137.9234  161.4618 N.ar    1  UNL1       -0.0222
     22 N         138.9434  137.7155  162.7631 N.ar    1  UNL1       -0.0385
     23 C         143.0411  142.9382  163.6615 C.3     1  UNL1        0.1186
     24 C         143.0139  141.7553  162.7396 C.ar    1  UNL1        0.0752
     25 C         141.7139  141.2925  162.1515 C.ar    1  UNL1        0.0161
     26 C         141.6867  140.1096  161.2296 C.ar    1  UNL1        0.0067
     27 C         142.9595  139.3895  160.8957 C.ar    1  UNL1        0.0905
     28 C         144.2595  139.8524  161.4837 C.ar    1  UNL1        0.1023
     29 N         144.2867  141.0352  162.4057 N.ar    1  UNL1       -0.2468
     30 C         142.9323  138.2066  159.9738 C.3     1  UNL1        0.4200
     31 F         142.9051  137.0237  159.0518 F       1  UNL1       -0.1658
     32 F         142.4408  137.3425  161.0970 F       1  UNL1       -0.1658
     33 F         143.4238  139.0707  158.8505 F       1  UNL1       -0.1658
@<TRIPOS>BOND
     1     7     8    1
     2     8     9   am
     3     9    10    2
     4     9    11    1
     5    11    12    1
     6    12    13   ar
     7    13    14   ar
     8    14    15   ar
     9    15    18    1
    10    18    19   ar
    11    19    20   ar
    12    20    21   ar
    13    21    22   ar
    14    15    16   ar
    15    16    17   ar
    16     8     1    1
    17     1     2    1
    18     2     3    1
    19     3     4    1
    20     4    23    1
    21    23    24    1
    22    24    25   ar
    23    25    26   ar
    24    26    27   ar
    25    27    30    1
    26    30    31    1
    27    30    32    1
    28    30    33    1
    29    27    28   ar
    30    28    29   ar
    31     4     5    1
    32     5     6    1
    33    17    12   ar
    34     6     1    1
    35    22    18   ar
    36    29    24   ar
@<TRIPOS>MOLECULE
*****
 33 36 0 0 0
SMALL
GASTEIGER

@<TRIPOS>ATOM
      1 C         142.2536  139.8321  160.8977 C.3     1  UNL1        0.0782
      2 C         142.2888  141.3198  160.7094 C.3     1  UNL1        0.0372
      3 C         142.7120  142.2092  161.8407 C.3     1  UNL1        0.0741
      4 N         143.0999  141.6108  163.1604 N.3     1  UNL1       -0.2676
      5 C         143.0647  140.1231  163.3487 C.3     1  UNL1        0.0741
      6 C         142.6416  139.2337  162.2173 C.3     1  UNL1        0.0372
      7 C         142.8422  138.0806  159.0713 C.3     1  UNL1        0.1148
      8 N         141.8305  138.9427  159.7663 N.am    1  UNL1       -0.2790
      9 C         140.3955  138.9155  159.3300 C.2     1  UNL1        0.2301
     10 O         139.9724  138.0261  158.1986 O.2     1  UNL1       -0.2745
     11 C         139.3838  139.7776  160.0250 C.3     1  UNL1        0.1116
     12 C         139.1050  139.5781  161.4854 C.ar    1  UNL1       -0.0130
     13 C         138.9490  140.7657  162.3882 C.ar    1  UNL1       -0.0022
     14 C         138.6702  140.5661  163.8485 C.ar    1  UNL1        0.0190
     15 C         138.5475  139.1789  164.4059 C.ar    1  UNL1        0.0862
     16 C         138.7036  137.9913  163.5030 C.ar    1  UNL1        0.0190
     17 C         138.9823  138.1909  162.0428 C.ar    1  UNL1       -0.0022
     18 N         138.2687  138.9794  165.8662 N.ar    1  UNL1       -0.1886
     19 C         138.9245  139.7144  166.9975 C.ar    1  UNL1        0.2258
     20 N         138.3464  139.1991  168.2821 N.ar    1  UNL1       -0.1045
     21 N         137.3332  138.1457  167.9447 N.ar    1  UNL1       -0.0222
     22 N         137.2852  138.0099  166.4517 N.ar    1  UNL1       -0.0385
     23 C         143.5230  142.5002  164.2917 C.3     1  UNL1        0.1186
     24 C         142.7145  142.5436  165.5544 C.ar    1  UNL1        0.0752
     25 C         141.2602  142.9073  165.5015 C.ar    1  UNL1        0.0161
     26 C         140.4516  142.9507  166.7642 C.ar    1  UNL1        0.0067
     27 C         141.0973  142.6305  168.0797 C.ar    1  UNL1        0.0905
     28 C         142.5516  142.2669  168.1325 C.ar    1  UNL1        0.1023
     29 N         143.3602  142.2234  166.8699 N.ar    1  UNL1       -0.2468
     30 C         140.2887  142.6739  169.3423 C.3     1  UNL1        0.4200
     31 F         139.4802  142.7173  170.6050 F       1  UNL1       -0.1658
     32 F         140.4638  141.1931  169.5054 F       1  UNL1       -0.1658
     33 F         140.1137  144.1547  169.1793 F       1  UNL1       -0.1658
@<TRIPOS>BOND
     1     7     8    1
     2     8     9   am
     3     9    10    2
     4     9    11    1
     5    11    12    1
     6    12    13   ar
     7    13    14   ar
     8    14    15   ar
     9    15    18    1
    10    18    19   ar
    11    19    20   ar
    12    20    21   ar
    13    21    22   ar
    14    15    16   ar
    15    16    17   ar
    16     8     1    1
    17     1     2    1
    18     2     3    1
    19     3     4    1
    20     4    23    1
    21    23    24    1
    22    24    25   ar
    23    25    26   ar
    24    26    27   ar
    25    27    30    1
    26    30    31    1
    27    30    32    1
    28    30    33    1
    29    27    28   ar
    30    28    29   ar
    31     4     5    1
    32     5     6    1
    33    17    12   ar
    34     6     1    1
    35    22    18   ar
    36    29    24   ar
@<TRIPOS>MOLECULE
*****
 33 36 0 0 0
SMALL
GASTEIGER

@<TRIPOS>ATOM
      1 C         142.3389  140.2732  159.2163 C.3     1  UNL1        0.0782
      2 C         142.5132  139.0751  160.1017 C.3     1  UNL1        0.0372
      3 C         141.3301  138.4915  160.8156 C.3     1  UNL1        0.0741
      4 N         139.9726  139.1060  160.6440 N.3     1  UNL1       -0.2676
      5 C         139.7982  140.3042  159.7586 C.3     1  UNL1        0.0741
      6 C         140.9813  140.8878  159.0447 C.3     1  UNL1        0.0372
      7 C         144.0639  140.1852  157.2756 C.3     1  UNL1        0.1148
      8 N         143.5220  140.8568  158.5025 N.am    1  UNL1       -0.2790
      9 C         144.1633  142.1121  159.0155 C.2     1  UNL1        0.2301
     10 O         145.3464  142.6956  158.3017 O.2     1  UNL1       -0.2745
     11 C         143.6214  142.7837  160.2424 C.3     1  UNL1        0.1116
     12 C         143.5769  142.0422  161.5456 C.ar    1  UNL1       -0.0130
     13 C         142.3090  142.0084  162.3464 C.ar    1  UNL1       -0.0022
     14 C         142.2645  141.2670  163.6495 C.ar    1  UNL1        0.0190
     15 C         143.4880  140.5594  164.1520 C.ar    1  UNL1        0.0862
     16 C         144.7559  140.5932  163.3512 C.ar    1  UNL1        0.0190
     17 C         144.8003  141.3346  162.0481 C.ar    1  UNL1       -0.0022
     18 N         143.4435  139.8179  165.4552 N.ar    1  UNL1       -0.1886
     19 C         142.7639  140.2804  166.7099 C.ar    1  UNL1        0.2258
     20 N         142.9712  139.2322  167.7627 N.ar    1  UNL1       -0.1045
     21 N         143.7788  138.1219  167.1586 N.ar    1  UNL1       -0.0222
     22 N         144.0707  138.4839  165.7325 N.ar    1  UNL1       -0.0385
     23 C         138.7894  138.5224  161.3579 C.3     1  UNL1        0.1186
     24 C         138.6508  138.6909  162.8419 C.ar    1  UNL1        0.0752
     25 C         138.3171  140.0359  163.4160 C.ar    1  UNL1        0.0161
     26 C         138.1785  140.2044  164.9001 C.ar    1  UNL1        0.0067
     27 C         138.3737  139.0280  165.8100 C.ar    1  UNL1        0.0905
     28 C         138.7074  137.6830  165.2358 C.ar    1  UNL1        0.1023
     29 N         138.8460  137.5145  163.7518 N.ar    1  UNL1       -0.2468
     30 C         138.2351  139.1965  167.2940 C.3     1  UNL1        0.4200
     31 F         138.0965  139.3650  168.7781 F       1  UNL1       -0.1658
     32 F         137.0261  138.3088  167.2819 F       1  UNL1       -0.1658
     33 F         139.4441  140.0842  167.3061 F       1  UNL1       -0.1658
@<TRIPOS>BOND
     1     7     8    1
     2     8     9   am
     3     9    10    2
     4     9    11    1
     5    11    12    1
     6    12    13   ar
     7    13    14   ar
     8    14    15   ar
     9    15    18    1
    10    18    19   ar
    11    19    20   ar
    12    20    21   ar
    13    21    22   ar
    14    15    16   ar
    15    16    17   ar
    16     8     1    1
    17     1     2    1
    18     2     3    1
    19     3     4    1
    20     4    23    1
    21    23    24    1
    22    24    25   ar
    23    25    26   ar
    24    26    27   ar
    25    27    30    1
    26    30    31    1
    27    30    32    1
    28    30    33    1
    29    27    28   ar
    30    28    29   ar
    31     4     5    1
    32     5     6    1
    33    17    12   ar
    34     6     1    1
    35    22    18   ar
    36    29    24   ar
@<TRIPOS>MOLECULE
*****
 33 36 0 0 0
SMALL
GASTEIGER

@<TRIPOS>ATOM
      1 C         138.7963  138.7943  165.0525 C.3     1  UNL1        0.0782
      2 C         138.0709  139.7125  164.1141 C.3     1  UNL1        0.0372
      3 C         138.2379  139.5548  162.6318 C.3     1  UNL1        0.0741
      4 N         139.1303  138.4788  162.0879 N.3     1  UNL1       -0.2676
      5 C         139.8557  137.5605  163.0263 C.3     1  UNL1        0.0741
      6 C         139.6887  137.7182  164.5086 C.3     1  UNL1        0.0372
      7 C         137.4455  138.3423  167.2253 C.3     1  UNL1        0.1148
      8 N         138.6293  138.9520  166.5348 N.am    1  UNL1       -0.2790
      9 C         139.6463  139.7195  167.3267 C.2     1  UNL1        0.2301
     10 O         139.4793  139.8772  168.8090 O.2     1  UNL1       -0.2745
     11 C         140.8301  140.3291  166.6362 C.3     1  UNL1        0.1116
     12 C         140.6253  141.3599  165.5658 C.ar    1  UNL1       -0.0130
     13 C         141.3336  141.2261  164.2504 C.ar    1  UNL1       -0.0022
     14 C         141.1288  142.2567  163.1800 C.ar    1  UNL1        0.0190
     15 C         140.2156  143.4212  163.4251 C.ar    1  UNL1        0.0862
     16 C         139.5072  143.5550  164.7405 C.ar    1  UNL1        0.0190
     17 C         139.7120  142.5243  165.8108 C.ar    1  UNL1       -0.0022
     18 N         140.0107  144.4519  162.3546 N.ar    1  UNL1       -0.1886
     19 C         140.1997  144.2426  160.8814 C.ar    1  UNL1        0.2258
     20 N         139.8868  145.5341  160.1857 N.ar    1  UNL1       -0.1045
     21 N         139.5044  146.5418  161.2291 N.ar    1  UNL1       -0.0222
     22 N         139.5810  145.8729  162.5695 N.ar    1  UNL1       -0.0385
     23 C         139.2973  138.3211  160.6056 C.3     1  UNL1        0.1186
     24 C         139.2661  139.5275  159.7147 C.ar    1  UNL1        0.0752
     25 C         140.5211  140.3120  159.4705 C.ar    1  UNL1        0.0161
     26 C         140.4900  141.5185  158.5796 C.ar    1  UNL1        0.0067
     27 C         139.2039  141.9404  157.9331 C.ar    1  UNL1        0.0905
     28 C         137.9489  141.1558  158.1774 C.ar    1  UNL1        0.1023
     29 N         137.9801  139.9494  159.0682 N.ar    1  UNL1       -0.2468
     30 C         139.1728  143.1468  157.0422 C.3     1  UNL1        0.4200
     31 F         139.1416  144.3532  156.1514 F       1  UNL1       -0.1658
     32 F         140.6130  143.4191  157.3607 F       1  UNL1       -0.1658
     33 F         137.7325  142.8745  156.7238 F       1  UNL1       -0.1658
@<TRIPOS>BOND
     1     7     8    1
     2     8     9   am
     3     9    10    2
     4     9    11    1
     5    11    12    1
     6    12    13   ar
     7    13    14   ar
     8    14    15   ar
     9    15    18    1
    10    18    19   ar
    11    19    20   ar
    12    20    21   ar
    13    21    22   ar
    14    15    16   ar
    15    16    17   ar
    16     8     1    1
    17     1     2    1
    18     2     3    1
    19     3     4    1
    20     4    23    1
    21    23    24    1
    22    24    25   ar
    23    25    26   ar
    24    26    27   ar
    25    27    30    1
    26    30    31    1
    27    30    32    1
    28    30    33    1
    29    27    28   ar
    30    28    29   ar
    31     4     5    1
    32     5     6    1
    33    17    12   ar
    34     6     1    1
    35    22    18   ar
    36    29    24   ar
@<TRIPOS>MOLECULE
*****
 33 36 0 0 0
SMALL
GASTEIGER

@<TRIPOS>ATOM
      1 C         140.2758  139.1863  159.9598 C.3     1  UNL1        0.0782
      2 C         140.3166  140.5977  160.4660 C.3     1  UNL1        0.0372
      3 C         139.4750  140.9975  161.6415 C.3     1  UNL1        0.0741
      4 N         138.5926  139.9859  162.3109 N.3     1  UNL1       -0.2676
      5 C         138.5517  138.5744  161.8047 C.3     1  UNL1        0.0741
      6 C         139.3933  138.1746  160.6291 C.3     1  UNL1        0.0372
      7 C         140.7107  139.1914  157.3984 C.3     1  UNL1        0.1148
      8 N         141.1174  138.7865  158.7843 N.am    1  UNL1       -0.2790
      9 C         142.3657  137.9818  158.9946 C.2     1  UNL1        0.2301
     10 O         143.2073  137.5820  157.8191 O.2     1  UNL1       -0.2745
     11 C         142.7723  137.5769  160.3805 C.3     1  UNL1        0.1116
     12 C         143.0479  138.6250  161.4176 C.ar    1  UNL1       -0.0130
     13 C         144.0178  139.7315  161.1265 C.ar    1  UNL1       -0.0022
     14 C         144.2932  140.7796  162.1636 C.ar    1  UNL1        0.0190
     15 C         143.5988  140.7211  163.4919 C.ar    1  UNL1        0.0862
     16 C         142.6289  139.6146  163.7831 C.ar    1  UNL1        0.0190
     17 C         142.3534  138.5665  162.7459 C.ar    1  UNL1       -0.0022
     18 N         143.8743  141.7692  164.5291 N.ar    1  UNL1       -0.1886
     19 C         144.6938  143.0101  164.3325 C.ar    1  UNL1        0.2258
     20 N         144.7047  143.7683  165.6268 N.ar    1  UNL1       -0.1045
     21 N         143.8919  142.9958  166.6232 N.ar    1  UNL1       -0.0222
     22 N         143.3788  141.7604  165.9448 N.ar    1  UNL1       -0.0385
     23 C         137.7510  140.3857  163.4864 C.3     1  UNL1        0.1186
     24 C         138.3075  140.2859  164.8757 C.ar    1  UNL1        0.0752
     25 C         139.3328  141.2747  165.3457 C.ar    1  UNL1        0.0161
     26 C         139.8894  141.1749  166.7352 C.ar    1  UNL1        0.0067
     27 C         139.4205  140.0864  167.6545 C.ar    1  UNL1        0.0905
     28 C         138.3951  139.0976  167.1844 C.ar    1  UNL1        0.1023
     29 N         137.8386  139.1974  165.7951 N.ar    1  UNL1       -0.2468
     30 C         139.9770  139.9866  169.0438 C.3     1  UNL1        0.4200
     31 F         140.5334  139.8868  170.4332 F       1  UNL1       -0.1658
     32 F         141.3371  139.7031  168.4787 F       1  UNL1       -0.1658
     33 F         138.6168  140.2701  169.6090 F       1  UNL1       -0.1658
@<TRIPOS>BOND
     1     7     8    1
     2     8     9   am
     3     9    10    2
     4     9    11    1
     5    11    12    1
     6    12    13   ar
     7    13    14   ar
     8    14    15   ar
     9    15    18    1
    10    18    19   ar
    11    19    20   ar
    12    20    21   ar
    13    21    22   ar
    14    15    16   ar
    15    16    17   ar
    16     8     1    1
    17     1     2    1
    18     2     3    1
    19     3     4    1
    20     4    23    1
    21    23    24    1
    22    24    25   ar
    23    25    26   ar
    24    26    27   ar
    25    27    30    1
    26    30    31    1
    27    30    32    1
    28    30    33    1
    29    27    28   ar
    30    28    29   ar
    31     4     5    1
    32     5     6    1
    33    17    12   ar
    34     6     1    1
    35    22    18   ar
    36    29    24   ar
@<TRIPOS>MOLECULE
*****
 33 36 0 0 0
SMALL
GASTEIGER

@<TRIPOS>ATOM
      1 C         141.2209  142.1728  159.3311 C.3     1  UNL1        0.0782
      2 C         139.7796  141.8589  159.0591 C.3     1  UNL1        0.0372
      3 C         139.1242  140.6940  159.7401 C.3     1  UNL1        0.0741
      4 N         139.9103  139.8431  160.6930 N.3     1  UNL1       -0.2676
      5 C         141.3517  140.1571  160.9650 C.3     1  UNL1        0.0741
      6 C         142.0070  141.3219  160.2841 C.3     1  UNL1        0.0372
      7 C         142.8341  143.1038  157.5198 C.3     1  UNL1        0.1148
      8 N         141.8762  143.3377  158.6501 N.am    1  UNL1       -0.2790
      9 C         141.5735  144.7364  159.0995 C.2     1  UNL1        0.2301
     10 O         142.2288  145.9013  158.4185 O.2     1  UNL1       -0.2745
     11 C         140.6155  144.9703  160.2298 C.3     1  UNL1        0.1116
     12 C         140.9347  144.4555  161.6021 C.ar    1  UNL1       -0.0130
     13 C         139.8602  143.8190  162.4330 C.ar    1  UNL1       -0.0022
     14 C         140.1794  143.3043  163.8052 C.ar    1  UNL1        0.0190
     15 C         141.5730  143.4261  164.3466 C.ar    1  UNL1        0.0862
     16 C         142.6474  144.0626  163.5157 C.ar    1  UNL1        0.0190
     17 C         142.3283  144.5773  162.1435 C.ar    1  UNL1       -0.0022
     18 N         141.8921  142.9113  165.7190 N.ar    1  UNL1       -0.1886
     19 C         140.8976  142.6081  166.8002 C.ar    1  UNL1        0.2258
     20 N         141.6525  142.1188  168.0005 N.ar    1  UNL1       -0.1045
     21 N         143.1136  142.1195  167.6609 N.ar    1  UNL1       -0.0222
     22 N         143.2617  142.6092  166.2509 N.ar    1  UNL1       -0.0385
     23 C         139.2550  138.6783  161.3740 C.3     1  UNL1        0.1186
     24 C         138.9366  138.7476  162.8382 C.ar    1  UNL1        0.0752
     25 C         138.4561  140.0342  163.4411 C.ar    1  UNL1        0.0161
     26 C         138.1378  140.1035  164.9054 C.ar    1  UNL1        0.0067
     27 C         138.2999  138.8861  165.7666 C.ar    1  UNL1        0.0905
     28 C         138.7804  137.5994  165.1635 C.ar    1  UNL1        0.1023
     29 N         139.0988  137.5302  163.6994 N.ar    1  UNL1       -0.2468
     30 C         137.9816  138.9554  167.2307 C.3     1  UNL1        0.4200
     31 F         137.6632  139.0246  168.6949 F       1  UNL1       -0.1658
     32 F         137.0352  137.8015  167.0796 F       1  UNL1       -0.1658
     33 F         138.9279  140.1093  167.3819 F       1  UNL1       -0.1658
@<TRIPOS>BOND
     1     7     8    1
     2     8     9   am
     3     9    10    2
     4     9    11    1
     5    11    12    1
     6    12    13   ar
     7    13    14   ar
     8    14    15   ar
     9    15    18    1
    10    18    19   ar
    11    19    20   ar
    12    20    21   ar
    13    21    22   ar
    14    15    16   ar
    15    16    17   ar
    16     8     1    1
    17     1     2    1
    18     2     3    1
    19     3     4    1
    20     4    23    1
    21    23    24    1
    22    24    25   ar
    23    25    26   ar
    24    26    27   ar
    25    27    30    1
    26    30    31    1
    27    30    32    1
    28    30    33    1
    29    27    28   ar
    30    28    29   ar
    31     4     5    1
    32     5     6    1
    33    17    12   ar
    34     6     1    1
    35    22    18   ar
    36    29    24   ar
