@<TRIPOS>MOLECULE
*****
 37 40 0 0 0
SMALL
GASTEIGER

@<TRIPOS>ATOM
      1 N         142.7656  142.3839  161.5009 N.ar    1  UNL1       -0.3180
      2 C         142.6148  143.8754  161.4501 C.ar    1  UNL1        0.0720
      3 C         141.3176  144.1869  160.7643 C.ar    1  UNL1       -0.0021
      4 C         140.6668  142.8879  160.3912 C.ar    1  UNL1        0.0133
      5 C         139.3749  142.5759  159.6958 C.ar    1  UNL1        0.0012
      6 C         138.9780  141.1494  159.4557 C.ar    1  UNL1        0.0001
      7 C         139.8729  140.0351  159.9110 C.ar    1  UNL1        0.0015
      8 C         141.1648  140.3472  160.6064 C.ar    1  UNL1        0.0172
      9 C         141.5617  141.7736  160.8465 C.ar    1  UNL1        0.0600
     10 C         143.9181  141.6342  162.1008 C.3     1  UNL1        0.1920
     11 N         142.6958  141.3055  164.3698 N.am    1  UNL1       -0.2823
     12 C         143.9684  141.3952  163.5809 C.2     1  UNL1        0.2492
     13 O         145.2913  141.2460  164.2720 O.2     1  UNL1       -0.2727
     14 H         141.8275  141.4035  163.9163 H       1  UNL1        0.1549
     15 C         142.8470  140.5888  168.8098 C.ar    1  UNL1        0.1388
     16 C         142.9439  141.9857  168.2719 C.ar    1  UNL1        0.0382
     17 C         142.8935  142.2246  166.7918 C.ar    1  UNL1        0.0178
     18 C         142.7462  141.0666  165.8498 C.ar    1  UNL1        0.0505
     19 C         142.6492  139.6697  166.3877 C.ar    1  UNL1        0.0178
     20 C         142.6996  139.4309  167.8677 C.ar    1  UNL1        0.0382
     21 C         141.8871  140.9986  171.1890 C.3     1  UNL1        0.2525
     22 O         142.8974  140.3499  170.2898 O.3     1  UNL1       -0.4714
     23 C         140.7678  145.5569  160.4981 C.3     1  UNL1        0.0467
     24 C         139.6915  146.1175  161.3800 C.3     1  UNL1        0.0962
     25 N         139.7147  145.8478  162.8554 N.3     1  UNL1       -0.1790
     26 H         139.0642  146.5054  163.2852 H       1  UNL1        0.1488
     27 S         139.3598  144.4860  163.3745 S.O2    1  UNL1        0.0602
     28 O         140.5894  144.4928  164.2335 O.2     1  UNL1       -0.1530
     29 O         138.1300  144.4791  162.5154 O.2     1  UNL1       -0.1530
     30 C         139.0048  143.1241  163.8935 C.ar    1  UNL1        0.1221
     31 C         138.1465  142.2086  163.0718 C.ar    1  UNL1        0.0230
     32 C         137.7914  140.8467  163.5907 C.ar    1  UNL1        0.0383
     33 C         138.2947  140.4004  164.9314 C.ar    1  UNL1        0.1388
     34 C         139.1529  141.3159  165.7531 C.ar    1  UNL1        0.0383
     35 C         139.5080  142.6777  165.2342 C.ar    1  UNL1        0.0230
     36 O         137.9397  139.0386  165.4504 O.3     1  UNL1       -0.4714
     37 C         137.9450  138.7738  166.9268 C.3     1  UNL1        0.2525
@<TRIPOS>BOND
     1    21    22    1
     2    22    15    1
     3    15    16   ar
     4    16    17   ar
     5    17    18   ar
     6    18    11    1
     7    11    12   am
     8    12    13    2
     9    12    10    1
    10    10     1    1
    11     1     2   ar
    12     2     3   ar
    13     3    23    1
    14    23    24    1
    15    24    25    1
    16    25    27    1
    17    27    28    2
    18    27    29    2
    19    27    30    1
    20    30    31   ar
    21    31    32   ar
    22    32    33   ar
    23    33    36    1
    24    36    37    1
    25    33    34   ar
    26    34    35   ar
    27     3     4   ar
    28     4     5   ar
    29     5     6   ar
    30     6     7   ar
    31     7     8   ar
    32     8     9   ar
    33    18    19   ar
    34    19    20   ar
    35    20    15   ar
    36     9     1   ar
    37    35    30   ar
    38     9     4   ar
    39    11    14    1
    40    25    26    1
@<TRIPOS>MOLECULE
*****
 37 40 0 0 0
SMALL
GASTEIGER

@<TRIPOS>ATOM
      1 N         139.9985  137.8637  163.4495 N.ar    1  UNL1       -0.3180
      2 C         141.4523  137.5298  163.2920 C.ar    1  UNL1        0.0720
      3 C         141.8758  137.9417  161.9133 C.ar    1  UNL1       -0.0021
      4 C         140.6837  138.5302  161.2186 C.ar    1  UNL1        0.0133
      5 C         140.5048  139.1037  159.8442 C.ar    1  UNL1        0.0012
      6 C         139.1656  139.6291  159.4193 C.ar    1  UNL1        0.0001
      7 C         138.0053  139.5809  160.3688 C.ar    1  UNL1        0.0015
      8 C         138.1842  139.0073  161.7432 C.ar    1  UNL1        0.0172
      9 C         139.5234  138.4820  162.1681 C.ar    1  UNL1        0.0600
     10 C         139.1659  137.6218  164.6735 C.3     1  UNL1        0.1920
     11 N         140.2723  139.1937  166.4215 N.am    1  UNL1       -0.2823
     12 C         139.0456  138.6883  165.7216 C.2     1  UNL1        0.2492
     13 O         137.6987  139.2491  166.0698 O.2     1  UNL1       -0.2727
     14 H         141.1563  138.8256  166.1930 H       1  UNL1        0.1549
     15 C         139.9112  142.3928  169.5656 C.ar    1  UNL1        0.1388
     16 C         139.4039  141.0086  169.8423 C.ar    1  UNL1        0.0382
     17 C         139.5243  139.9422  168.7942 C.ar    1  UNL1        0.0178
     18 C         140.1519  140.2601  167.4695 C.ar    1  UNL1        0.0505
     19 C         140.6592  141.6443  167.1928 C.ar    1  UNL1        0.0178
     20 C         140.5388  142.7106  168.2408 C.ar    1  UNL1        0.0382
     21 C         140.3064  144.8410  170.3401 C.3     1  UNL1        0.2525
     22 O         139.7908  143.4592  170.6136 O.3     1  UNL1       -0.4714
     23 C         143.2501  137.7915  161.3313 C.3     1  UNL1        0.0467
     24 C         144.0546  139.0090  160.9838 C.3     1  UNL1        0.0962
     25 N         144.4711  139.9654  162.0617 N.3     1  UNL1       -0.1790
     26 H         145.2451  140.5135  161.6861 H       1  UNL1        0.1488
     27 S         143.4801  140.9425  162.6212 S.O2    1  UNL1        0.0602
     28 O         143.3572  141.5897  161.2736 O.2     1  UNL1       -0.1530
     29 O         143.6030  140.2952  163.9689 O.2     1  UNL1       -0.1530
     30 C         142.4891  141.9195  163.1809 C.ar    1  UNL1        0.1221
     31 C         141.0649  141.5018  163.3981 C.ar    1  UNL1        0.0230
     32 C         140.0737  142.4788  163.9578 C.ar    1  UNL1        0.0383
     33 C         140.5069  143.8735  164.3002 C.ar    1  UNL1        0.1388
     34 C         141.9310  144.2912  164.0829 C.ar    1  UNL1        0.0383
     35 C         142.9221  143.3143  163.5233 C.ar    1  UNL1        0.0230
     36 O         139.5158  144.8506  164.8598 O.3     1  UNL1       -0.4714
     37 C         138.0496  144.5363  164.8221 C.3     1  UNL1        0.2525
@<TRIPOS>BOND
     1    21    22    1
     2    22    15    1
     3    15    16   ar
     4    16    17   ar
     5    17    18   ar
     6    18    11    1
     7    11    12   am
     8    12    13    2
     9    12    10    1
    10    10     1    1
    11     1     2   ar
    12     2     3   ar
    13     3    23    1
    14    23    24    1
    15    24    25    1
    16    25    27    1
    17    27    28    2
    18    27    29    2
    19    27    30    1
    20    30    31   ar
    21    31    32   ar
    22    32    33   ar
    23    33    36    1
    24    36    37    1
    25    33    34   ar
    26    34    35   ar
    27     3     4   ar
    28     4     5   ar
    29     5     6   ar
    30     6     7   ar
    31     7     8   ar
    32     8     9   ar
    33    18    19   ar
    34    19    20   ar
    35    20    15   ar
    36     9     1   ar
    37    35    30   ar
    38     9     4   ar
    39    11    14    1
    40    25    26    1
@<TRIPOS>MOLECULE
*****
 37 40 0 0 0
SMALL
GASTEIGER

@<TRIPOS>ATOM
      1 N         143.4516  143.5857  161.8797 N.ar    1  UNL1       -0.3180
      2 C         142.2629  144.4753  162.0932 C.ar    1  UNL1        0.0720
      3 C         141.5645  144.6397  160.7759 C.ar    1  UNL1       -0.0021
      4 C         142.3216  143.8516  159.7483 C.ar    1  UNL1        0.0133
      5 C         142.0997  143.6431  158.2796 C.ar    1  UNL1        0.0012
      6 C         143.0441  142.7831  157.4931 C.ar    1  UNL1        0.0001
      7 C         144.2104  142.1317  158.1754 C.ar    1  UNL1        0.0015
      8 C         144.4323  142.3403  159.6441 C.ar    1  UNL1        0.0172
      9 C         143.4879  143.2003  160.4306 C.ar    1  UNL1        0.0600
     10 C         144.4319  143.1569  162.9309 C.3     1  UNL1        0.1920
     11 N         142.8263  141.7283  164.3909 N.am    1  UNL1       -0.2823
     12 C         143.9424  142.7245  164.2814 C.2     1  UNL1        0.2492
     13 O         144.5689  143.2883  165.5221 O.2     1  UNL1       -0.2727
     14 H         142.4150  141.3583  163.5765 H       1  UNL1        0.1549
     15 C         141.3579  140.4312  168.4420 C.ar    1  UNL1        0.1388
     16 C         142.3484  139.5861  167.6973 C.ar    1  UNL1        0.0382
     17 C         142.8378  140.0185  166.3469 C.ar    1  UNL1        0.0178
     18 C         142.3368  141.2960  165.7412 C.ar    1  UNL1        0.0505
     19 C         141.3463  142.1412  166.4859 C.ar    1  UNL1        0.0178
     20 C         140.8569  141.7088  167.8363 C.ar    1  UNL1        0.0382
     21 C         139.4503  140.2711  170.1985 C.3     1  UNL1        0.2525
     22 O         140.8684  139.9989  169.7924 O.3     1  UNL1       -0.4714
     23 C         140.3264  145.4498  160.5293 C.3     1  UNL1        0.0467
     24 C         139.5553  146.0122  161.6866 C.3     1  UNL1        0.0962
     25 N         138.3936  145.2517  162.2543 N.3     1  UNL1       -0.1790
     26 H         137.6944  145.1868  161.5146 H       1  UNL1        0.1488
     27 S         138.5935  143.8627  162.7842 S.O2    1  UNL1        0.0602
     28 O         137.8760  143.3042  161.5912 O.2     1  UNL1       -0.1530
     29 O         139.3112  144.4212  163.9772 O.2     1  UNL1       -0.1530
     30 C         138.7935  142.4738  163.3141 C.ar    1  UNL1        0.1221
     31 C         139.6999  141.5197  162.5943 C.ar    1  UNL1        0.0230
     32 C         139.8999  140.1307  163.1242 C.ar    1  UNL1        0.0383
     33 C         139.1935  139.6958  164.3740 C.ar    1  UNL1        0.1388
     34 C         138.2871  140.6499  165.0938 C.ar    1  UNL1        0.0383
     35 C         138.0871  142.0389  164.5639 C.ar    1  UNL1        0.0230
     36 O         139.3934  138.3069  164.9039 O.3     1  UNL1       -0.4714
     37 C         140.6361  137.5427  164.5549 C.3     1  UNL1        0.2525
@<TRIPOS>BOND
     1    21    22    1
     2    22    15    1
     3    15    16   ar
     4    16    17   ar
     5    17    18   ar
     6    18    11    1
     7    11    12   am
     8    12    13    2
     9    12    10    1
    10    10     1    1
    11     1     2   ar
    12     2     3   ar
    13     3    23    1
    14    23    24    1
    15    24    25    1
    16    25    27    1
    17    27    28    2
    18    27    29    2
    19    27    30    1
    20    30    31   ar
    21    31    32   ar
    22    32    33   ar
    23    33    36    1
    24    36    37    1
    25    33    34   ar
    26    34    35   ar
    27     3     4   ar
    28     4     5   ar
    29     5     6   ar
    30     6     7   ar
    31     7     8   ar
    32     8     9   ar
    33    18    19   ar
    34    19    20   ar
    35    20    15   ar
    36     9     1   ar
    37    35    30   ar
    38     9     4   ar
    39    11    14    1
    40    25    26    1
@<TRIPOS>MOLECULE
*****
 37 40 0 0 0
SMALL
GASTEIGER

@<TRIPOS>ATOM
      1 N         143.1071  139.2902  164.1249 N.ar    1  UNL1       -0.3180
      2 C         142.6762  138.7522  165.4571 C.ar    1  UNL1        0.0720
      3 C         142.8165  139.8513  166.4681 C.ar    1  UNL1       -0.0021
      4 C         143.3342  141.0686  165.7608 C.ar    1  UNL1        0.0133
      5 C         143.6652  142.4479  166.2483 C.ar    1  UNL1        0.0012
      6 C         144.1759  143.4804  165.2876 C.ar    1  UNL1        0.0001
      7 C         144.3555  143.1336  163.8393 C.ar    1  UNL1        0.0015
      8 C         144.0245  141.7543  163.3518 C.ar    1  UNL1        0.0172
      9 C         143.5138  140.7217  164.3125 C.ar    1  UNL1        0.0600
     10 C         143.1278  138.5300  162.8319 C.3     1  UNL1        0.1920
     11 N         141.7045  139.9561  161.1915 N.am    1  UNL1       -0.2823
     12 C         141.9799  138.6488  161.8736 C.2     1  UNL1        0.2492
     13 O         141.1074  137.4603  161.5974 O.2     1  UNL1       -0.2727
     14 H         142.2771  140.7361  161.3728 H       1  UNL1        0.1549
     15 C         138.2607  140.3122  158.3168 C.ar    1  UNL1        0.1388
     16 C         138.0136  140.3763  159.7949 C.ar    1  UNL1        0.0382
     17 C         139.1616  140.2576  160.7532 C.ar    1  UNL1        0.0178
     18 C         140.5567  140.0748  160.2333 C.ar    1  UNL1        0.0505
     19 C         140.8038  140.0107  158.7552 C.ar    1  UNL1        0.0178
     20 C         139.6559  140.1294  157.7970 C.ar    1  UNL1        0.0382
     21 C         136.8753  141.7198  156.6289 C.3     1  UNL1        0.2525
     22 O         137.1129  140.4309  157.3586 O.3     1  UNL1       -0.4714
     23 C         142.4955  139.7509  167.9300 C.3     1  UNL1        0.0467
     24 C         141.2356  140.3646  168.4651 C.3     1  UNL1        0.0962
     25 N         139.9661  140.2847  167.6702 N.3     1  UNL1       -0.1790
     26 H         139.1968  140.3631  168.3353 H       1  UNL1        0.1488
     27 S         139.6996  141.2806  166.5806 S.O2    1  UNL1        0.0602
     28 O         140.2812  142.3691  167.4331 O.2     1  UNL1       -0.1530
     29 O         139.1180  140.1920  165.7280 O.2     1  UNL1       -0.1530
     30 C         139.4331  142.2763  165.4909 C.ar    1  UNL1        0.1221
     31 C         140.3886  143.4094  165.2603 C.ar    1  UNL1        0.0230
     32 C         140.1222  144.4053  164.1706 C.ar    1  UNL1        0.0383
     33 C         138.9002  144.2680  163.3116 C.ar    1  UNL1        0.1388
     34 C         137.9448  143.1349  163.5422 C.ar    1  UNL1        0.0383
     35 C         138.2112  142.1391  164.6318 C.ar    1  UNL1        0.0230
     36 O         138.6337  145.2638  162.2219 O.3     1  UNL1       -0.4714
     37 C         139.7042  146.2312  161.8118 C.3     1  UNL1        0.2525
@<TRIPOS>BOND
     1    21    22    1
     2    22    15    1
     3    15    16   ar
     4    16    17   ar
     5    17    18   ar
     6    18    11    1
     7    11    12   am
     8    12    13    2
     9    12    10    1
    10    10     1    1
    11     1     2   ar
    12     2     3   ar
    13     3    23    1
    14    23    24    1
    15    24    25    1
    16    25    27    1
    17    27    28    2
    18    27    29    2
    19    27    30    1
    20    30    31   ar
    21    31    32   ar
    22    32    33   ar
    23    33    36    1
    24    36    37    1
    25    33    34   ar
    26    34    35   ar
    27     3     4   ar
    28     4     5   ar
    29     5     6   ar
    30     6     7   ar
    31     7     8   ar
    32     8     9   ar
    33    18    19   ar
    34    19    20   ar
    35    20    15   ar
    36     9     1   ar
    37    35    30   ar
    38     9     4   ar
    39    11    14    1
    40    25    26    1
@<TRIPOS>MOLECULE
*****
 37 40 0 0 0
SMALL
GASTEIGER

@<TRIPOS>ATOM
      1 N         143.4042  142.8179  161.0659 N.ar    1  UNL1       -0.3180
      2 C         142.8506  142.5112  159.7059 C.ar    1  UNL1        0.0720
      3 C         141.6401  143.3711  159.4935 C.ar    1  UNL1       -0.0021
      4 C         141.4454  144.2092  160.7222 C.ar    1  UNL1        0.0133
      5 C         140.4163  145.2395  161.0817 C.ar    1  UNL1        0.0012
      6 C         140.4774  145.9279  162.4130 C.ar    1  UNL1        0.0001
      7 C         141.5677  145.5860  163.3847 C.ar    1  UNL1        0.0015
      8 C         142.5968  144.5557  163.0253 C.ar    1  UNL1        0.0172
      9 C         142.5357  143.8673  161.6940 C.ar    1  UNL1        0.0600
     10 C         144.6138  142.1861  161.6885 C.3     1  UNL1        0.1920
     11 N         143.2737  140.9635  163.5485 N.am    1  UNL1       -0.2823
     12 C         144.5354  141.6235  163.0768 C.2     1  UNL1        0.2492
     13 O         145.7188  141.7208  163.9934 O.2     1  UNL1       -0.2727
     14 H         142.4970  140.8996  162.9470 H       1  UNL1        0.1549
     15 C         143.0388  139.2760  167.7136 C.ar    1  UNL1        0.1388
     16 C         142.7120  140.7195  167.4696 C.ar    1  UNL1        0.0382
     17 C         142.7903  141.2820  166.0812 C.ar    1  UNL1        0.0178
     18 C         143.1954  140.4010  164.9368 C.ar    1  UNL1        0.0505
     19 C         143.5222  138.9575  165.1807 C.ar    1  UNL1        0.0178
     20 C         143.4439  138.3950  166.5691 C.ar    1  UNL1        0.0382
     21 C         141.9222  139.2198  170.0587 C.3     1  UNL1        0.2525
     22 O         142.9605  138.7135  169.1018 O.3     1  UNL1       -0.4714
     23 C         140.7758  143.3896  158.2676 C.3     1  UNL1        0.0467
     24 C         139.5505  142.5268  158.2007 C.3     1  UNL1        0.0962
     25 N         138.4081  142.7722  159.1412 N.3     1  UNL1       -0.1790
     26 H         137.5559  142.5168  158.6424 H       1  UNL1        0.1488
     27 S         138.3623  142.0686  160.4651 S.O2    1  UNL1        0.0602
     28 O         137.6966  143.2649  161.0780 O.2     1  UNL1       -0.1530
     29 O         139.0280  140.8722  159.8522 O.2     1  UNL1       -0.1530
     30 C         138.3165  141.3649  161.7890 C.ar    1  UNL1        0.1221
     31 C         138.4757  139.8747  161.8521 C.ar    1  UNL1        0.0230
     32 C         138.4299  139.1708  163.1760 C.ar    1  UNL1        0.0383
     33 C         138.2250  139.9573  164.4368 C.ar    1  UNL1        0.1388
     34 C         138.0659  141.4475  164.3737 C.ar    1  UNL1        0.0383
     35 C         138.1117  142.1513  163.0498 C.ar    1  UNL1        0.0230
     36 O         138.1793  139.2536  165.7606 O.3     1  UNL1       -0.4714
     37 C         139.1940  139.5764  166.8171 C.3     1  UNL1        0.2525
@<TRIPOS>BOND
     1    21    22    1
     2    22    15    1
     3    15    16   ar
     4    16    17   ar
     5    17    18   ar
     6    18    11    1
     7    11    12   am
     8    12    13    2
     9    12    10    1
    10    10     1    1
    11     1     2   ar
    12     2     3   ar
    13     3    23    1
    14    23    24    1
    15    24    25    1
    16    25    27    1
    17    27    28    2
    18    27    29    2
    19    27    30    1
    20    30    31   ar
    21    31    32   ar
    22    32    33   ar
    23    33    36    1
    24    36    37    1
    25    33    34   ar
    26    34    35   ar
    27     3     4   ar
    28     4     5   ar
    29     5     6   ar
    30     6     7   ar
    31     7     8   ar
    32     8     9   ar
    33    18    19   ar
    34    19    20   ar
    35    20    15   ar
    36     9     1   ar
    37    35    30   ar
    38     9     4   ar
    39    11    14    1
    40    25    26    1
@<TRIPOS>MOLECULE
*****
 37 40 0 0 0
SMALL
GASTEIGER

@<TRIPOS>ATOM
      1 N         138.6159  141.2950  164.8149 N.ar    1  UNL1       -0.3180
      2 C         138.4382  139.8657  164.3962 C.ar    1  UNL1        0.0720
      3 C         139.4760  139.0437  165.1014 C.ar    1  UNL1       -0.0021
      4 C         140.2951  139.9651  165.9559 C.ar    1  UNL1        0.0133
      5 C         141.4563  139.7169  166.8723 C.ar    1  UNL1        0.0012
      6 C         142.0859  140.8600  167.6117 C.ar    1  UNL1        0.0001
      7 C         141.5543  142.2514  167.4346 C.ar    1  UNL1        0.0015
      8 C         140.3931  142.4997  166.5182 C.ar    1  UNL1        0.0172
      9 C         139.7635  141.3565  165.7788 C.ar    1  UNL1        0.0600
     10 C         137.7908  142.4587  164.3511 C.3     1  UNL1        0.1920
     11 N         139.2155  142.6294  162.1851 N.am    1  UNL1       -0.2823
     12 C         138.1663  143.1922  163.0976 C.2     1  UNL1        0.2492
     13 O         137.4927  144.4883  162.7567 O.2     1  UNL1       -0.2727
     14 H         139.6576  141.7787  162.4088 H       1  UNL1        0.1549
     15 C         140.3420  144.8301  158.4250 C.ar    1  UNL1        0.1388
     16 C         140.7552  145.3697  159.7622 C.ar    1  UNL1        0.0382
     17 C         140.3796  144.6361  161.0156 C.ar    1  UNL1        0.0178
     18 C         139.5909  143.3629  160.9317 C.ar    1  UNL1        0.0505
     19 C         139.1778  142.8233  159.5945 C.ar    1  UNL1        0.0178
     20 C         139.5533  143.5569  158.3412 C.ar    1  UNL1        0.0382
     21 C         139.7742  146.5685  156.5796 C.3     1  UNL1        0.2525
     22 O         140.7175  145.5636  157.1716 O.3     1  UNL1       -0.4714
     23 C         139.6621  137.5607  164.9744 C.3     1  UNL1        0.0467
     24 C         140.9404  137.0105  164.4144 C.3     1  UNL1        0.0962
     25 N         141.1355  136.9305  162.9293 N.3     1  UNL1       -0.1790
     26 H         140.2493  136.6182  162.5323 H       1  UNL1        0.1488
     27 S         141.5485  138.1504  162.1604 S.O2    1  UNL1        0.0602
     28 O         142.8663  138.1558  162.8768 O.2     1  UNL1       -0.1530
     29 O         140.2306  138.1449  161.4440 O.2     1  UNL1       -0.1530
     30 C         141.9614  139.3703  161.3915 C.ar    1  UNL1        0.1221
     31 C         141.7863  139.4131  159.9024 C.ar    1  UNL1        0.0230
     32 C         142.1992  140.6330  159.1333 C.ar    1  UNL1        0.0383
     33 C         142.7873  141.8101  159.8534 C.ar    1  UNL1        0.1388
     34 C         142.9624  141.7673  161.3426 C.ar    1  UNL1        0.0383
     35 C         142.5495  140.5474  162.1116 C.ar    1  UNL1        0.0230
     36 O         143.2002  143.0300  159.0845 O.3     1  UNL1       -0.4714
     37 C         144.0574  142.8911  157.8614 C.3     1  UNL1        0.2525
@<TRIPOS>BOND
     1    21    22    1
     2    22    15    1
     3    15    16   ar
     4    16    17   ar
     5    17    18   ar
     6    18    11    1
     7    11    12   am
     8    12    13    2
     9    12    10    1
    10    10     1    1
    11     1     2   ar
    12     2     3   ar
    13     3    23    1
    14    23    24    1
    15    24    25    1
    16    25    27    1
    17    27    28    2
    18    27    29    2
    19    27    30    1
    20    30    31   ar
    21    31    32   ar
    22    32    33   ar
    23    33    36    1
    24    36    37    1
    25    33    34   ar
    26    34    35   ar
    27     3     4   ar
    28     4     5   ar
    29     5     6   ar
    30     6     7   ar
    31     7     8   ar
    32     8     9   ar
    33    18    19   ar
    34    19    20   ar
    35    20    15   ar
    36     9     1   ar
    37    35    30   ar
    38     9     4   ar
    39    11    14    1
    40    25    26    1
@<TRIPOS>MOLECULE
*****
 37 40 0 0 0
SMALL
GASTEIGER

@<TRIPOS>ATOM
      1 N         142.9088  142.6184  164.7813 N.ar    1  UNL1       -0.3180
      2 C         142.7708  141.9966  166.1393 C.ar    1  UNL1        0.0720
      3 C         141.4335  142.3880  166.6946 C.ar    1  UNL1       -0.0021
      4 C         140.7450  143.2519  165.6797 C.ar    1  UNL1        0.0133
      5 C         139.4057  143.9272  165.6796 C.ar    1  UNL1        0.0012
      6 C         138.9781  144.7448  164.4970 C.ar    1  UNL1        0.0001
      7 C         139.8900  144.8872  163.3145 C.ar    1  UNL1        0.0015
      8 C         141.2294  144.2119  163.3146 C.ar    1  UNL1        0.0172
      9 C         141.6569  143.3942  164.4972 C.ar    1  UNL1        0.0600
     10 C         144.0913  142.4875  163.8677 C.3     1  UNL1        0.1920
     11 N         142.7828  140.7725  162.4195 N.am    1  UNL1       -0.2823
     12 C         144.0334  141.5537  162.6951 C.2     1  UNL1        0.2492
     13 O         145.2260  141.4011  161.7982 O.2     1  UNL1       -0.2727
     14 H         142.0001  140.8727  163.0082 H       1  UNL1        0.1549
     15 C         142.6092  137.9715  158.9018 C.ar    1  UNL1        0.1388
     16 C         142.1996  139.4053  158.7397 C.ar    1  UNL1        0.0382
     17 C         142.2575  140.3391  159.9124 C.ar    1  UNL1        0.0178
     18 C         142.7250  139.8388  161.2470 C.ar    1  UNL1        0.0505
     19 C         143.1346  138.4050  161.4091 C.ar    1  UNL1        0.0178
     20 C         143.0767  137.4714  160.2365 C.ar    1  UNL1        0.0382
     21 C         143.2308  137.4056  156.4435 C.3     1  UNL1        0.2525
     22 O         142.5514  137.0378  157.7293 O.3     1  UNL1       -0.4714
     23 C         140.8815  141.9863  168.0302 C.3     1  UNL1        0.0467
     24 C         139.9003  140.8557  168.1269 C.3     1  UNL1        0.0962
     25 N         140.1786  139.5591  167.4260 N.3     1  UNL1       -0.1790
     26 H         139.6047  138.8492  167.8811 H       1  UNL1        0.1488
     27 S         139.9318  139.4355  165.9517 S.O2    1  UNL1        0.0602
     28 O         141.2718  138.7832  165.7819 O.2     1  UNL1       -0.1530
     29 O         138.5917  140.0879  166.1214 O.2     1  UNL1       -0.1530
     30 C         139.6849  139.3120  164.4773 C.ar    1  UNL1        0.1221
     31 C         139.3083  140.5228  163.6759 C.ar    1  UNL1        0.0230
     32 C         139.0613  140.3994  162.2015 C.ar    1  UNL1        0.0383
     33 C         139.1911  139.0651  161.5285 C.ar    1  UNL1        0.1388
     34 C         139.5678  137.8544  162.3298 C.ar    1  UNL1        0.0383
     35 C         139.8147  137.9778  163.8042 C.ar    1  UNL1        0.0230
     36 O         138.9442  138.9417  160.0541 O.3     1  UNL1       -0.4714
     37 C         138.4186  140.1146  159.2809 C.3     1  UNL1        0.2525
@<TRIPOS>BOND
     1    21    22    1
     2    22    15    1
     3    15    16   ar
     4    16    17   ar
     5    17    18   ar
     6    18    11    1
     7    11    12   am
     8    12    13    2
     9    12    10    1
    10    10     1    1
    11     1     2   ar
    12     2     3   ar
    13     3    23    1
    14    23    24    1
    15    24    25    1
    16    25    27    1
    17    27    28    2
    18    27    29    2
    19    27    30    1
    20    30    31   ar
    21    31    32   ar
    22    32    33   ar
    23    33    36    1
    24    36    37    1
    25    33    34   ar
    26    34    35   ar
    27     3     4   ar
    28     4     5   ar
    29     5     6   ar
    30     6     7   ar
    31     7     8   ar
    32     8     9   ar
    33    18    19   ar
    34    19    20   ar
    35    20    15   ar
    36     9     1   ar
    37    35    30   ar
    38     9     4   ar
    39    11    14    1
    40    25    26    1
@<TRIPOS>MOLECULE
*****
 37 40 0 0 0
SMALL
GASTEIGER

@<TRIPOS>ATOM
      1 N         142.2153  144.1789  163.5707 N.ar    1  UNL1       -0.3180
      2 C         140.8295  144.7332  163.4210 C.ar    1  UNL1        0.0720
      3 C         140.0079  144.2456  164.5773 C.ar    1  UNL1       -0.0021
      4 C         140.8858  143.3899  165.4416 C.ar    1  UNL1        0.0133
      5 C         140.6192  142.6429  166.7147 C.ar    1  UNL1        0.0012
      6 C         141.7168  141.8547  167.3657 C.ar    1  UNL1        0.0001
      7 C         143.0811  141.8134  166.7436 C.ar    1  UNL1        0.0015
      8 C         143.3477  142.5604  165.4704 C.ar    1  UNL1        0.0172
      9 C         142.2500  143.3486  164.8195 C.ar    1  UNL1        0.0600
     10 C         143.3645  144.4135  162.6357 C.3     1  UNL1        0.1920
     11 N         143.2248  143.5237  160.1987 N.am    1  UNL1       -0.2823
     12 C         143.7183  143.3798  161.6078 C.2     1  UNL1        0.2492
     13 O         144.5656  142.2023  161.9892 O.2     1  UNL1       -0.2727
     14 H         142.6687  144.2966  159.9483 H       1  UNL1        0.1549
     15 C         144.2864  140.4227  157.1153 C.ar    1  UNL1        0.1388
     16 C         145.2192  141.5671  157.3801 C.ar    1  UNL1        0.0382
     17 C         144.8653  142.6008  158.4080 C.ar    1  UNL1        0.0178
     18 C         143.5786  142.4900  159.1709 C.ar    1  UNL1        0.0505
     19 C         142.6457  141.3456  158.9061 C.ar    1  UNL1        0.0178
     20 C         142.9996  140.3120  157.8783 C.ar    1  UNL1        0.0382
     21 C         143.6739  138.2868  155.7690 C.3     1  UNL1        0.2525
     22 O         144.6402  139.3890  156.0876 O.3     1  UNL1       -0.4714
     23 C         138.5621  144.5587  164.8257 C.3     1  UNL1        0.0467
     24 C         137.5054  143.9839  163.9294 C.3     1  UNL1        0.0962
     25 N         137.1491  142.5300  164.0267 N.3     1  UNL1       -0.1790
     26 H         136.2829  142.4035  163.5031 H       1  UNL1        0.1488
     27 S         138.1091  141.4881  163.5339 S.O2    1  UNL1        0.0602
     28 O         138.1488  140.8770  164.9032 O.2     1  UNL1       -0.1530
     29 O         138.0694  142.0992  162.1645 O.2     1  UNL1       -0.1530
     30 C         139.0690  140.4462  163.0411 C.ar    1  UNL1        0.1221
     31 C         138.6491  139.0074  162.9821 C.ar    1  UNL1        0.0230
     32 C         139.6090  137.9654  162.4893 C.ar    1  UNL1        0.0383
     33 C         140.9889  138.3623  162.0554 C.ar    1  UNL1        0.1388
     34 C         141.4089  139.8010  162.1143 C.ar    1  UNL1        0.0383
     35 C         140.4490  140.8430  162.6071 C.ar    1  UNL1        0.0230
     36 O         141.9489  137.3204  161.5625 O.3     1  UNL1       -0.4714
     37 C         142.9292  137.6568  160.4782 C.3     1  UNL1        0.2525
@<TRIPOS>BOND
     1    21    22    1
     2    22    15    1
     3    15    16   ar
     4    16    17   ar
     5    17    18   ar
     6    18    11    1
     7    11    12   am
     8    12    13    2
     9    12    10    1
    10    10     1    1
    11     1     2   ar
    12     2     3   ar
    13     3    23    1
    14    23    24    1
    15    24    25    1
    16    25    27    1
    17    27    28    2
    18    27    29    2
    19    27    30    1
    20    30    31   ar
    21    31    32   ar
    22    32    33   ar
    23    33    36    1
    24    36    37    1
    25    33    34   ar
    26    34    35   ar
    27     3     4   ar
    28     4     5   ar
    29     5     6   ar
    30     6     7   ar
    31     7     8   ar
    32     8     9   ar
    33    18    19   ar
    34    19    20   ar
    35    20    15   ar
    36     9     1   ar
    37    35    30   ar
    38     9     4   ar
    39    11    14    1
    40    25    26    1
@<TRIPOS>MOLECULE
*****
 37 40 0 0 0
SMALL
GASTEIGER

@<TRIPOS>ATOM
      1 N         144.1592  139.1442  162.9565 N.ar    1  UNL1       -0.3180
      2 C         143.4472  138.1213  162.1219 C.ar    1  UNL1        0.0720
      3 C         143.1273  138.7460  160.7962 C.ar    1  UNL1       -0.0021
      4 C         143.6415  140.1550  160.8116 C.ar    1  UNL1        0.0133
      5 C         143.6115  141.2457  159.7824 C.ar    1  UNL1        0.0012
      6 C         144.2192  142.5825  160.0883 C.ar    1  UNL1        0.0001
      7 C         144.8570  142.8286  161.4235 C.ar    1  UNL1        0.0015
      8 C         144.8870  141.7379  162.4527 C.ar    1  UNL1        0.0172
      9 C         144.2793  140.4011  162.1468 C.ar    1  UNL1        0.0600
     10 C         144.6627  138.9451  164.3554 C.3     1  UNL1        0.1920
     11 N         142.8025  140.4036  165.4338 N.am    1  UNL1       -0.2823
     12 C         143.7792  139.2687  165.5237 C.2     1  UNL1        0.2492
     13 O         143.8723  138.4573  166.7819 O.2     1  UNL1       -0.2727
     14 H         142.7413  140.9362  164.6080 H       1  UNL1        0.1549
     15 C         140.1520  141.3739  168.9386 C.ar    1  UNL1        0.1388
     16 C         139.9091  140.1300  168.1363 C.ar    1  UNL1        0.0382
     17 C         140.7927  139.8066  166.9680 C.ar    1  UNL1        0.0178
     18 C         141.9191  140.7271  166.6020 C.ar    1  UNL1        0.0505
     19 C         142.1620  141.9710  167.4043 C.ar    1  UNL1        0.0178
     20 C         141.2785  142.2944  168.5726 C.ar    1  UNL1        0.0382
     21 C         139.5782  142.8797  170.9765 C.3     1  UNL1        0.2525
     22 O         139.2686  141.6974  170.1068 O.3     1  UNL1       -0.4714
     23 C         142.4177  138.0789  159.6554 C.3     1  UNL1        0.0467
     24 C         141.0248  138.4992  159.2899 C.3     1  UNL1        0.0962
     25 N         139.9304  138.4400  160.3140 N.3     1  UNL1       -0.1790
     26 H         140.0195  137.5415  160.7885 H       1  UNL1        0.1488
     27 S         139.8469  139.4882  161.3836 S.O2    1  UNL1        0.0602
     28 O         139.8120  138.4159  162.4319 O.2     1  UNL1       -0.1530
     29 O         139.8817  140.5606  160.3353 O.2     1  UNL1       -0.1530
     30 C         139.7633  140.5365  162.4532 C.ar    1  UNL1        0.1221
     31 C         138.6372  140.5093  163.4437 C.ar    1  UNL1        0.0230
     32 C         138.5535  141.5576  164.5134 C.ar    1  UNL1        0.0383
     33 C         139.5961  142.6332  164.5925 C.ar    1  UNL1        0.1388
     34 C         140.7222  142.6604  163.6020 C.ar    1  UNL1        0.0383
     35 C         140.8059  141.6122  162.5324 C.ar    1  UNL1        0.0230
     36 O         139.5125  143.6815  165.6621 O.3     1  UNL1       -0.4714
     37 C         138.6479  144.8906  165.4612 C.3     1  UNL1        0.2525
@<TRIPOS>BOND
     1    21    22    1
     2    22    15    1
     3    15    16   ar
     4    16    17   ar
     5    17    18   ar
     6    18    11    1
     7    11    12   am
     8    12    13    2
     9    12    10    1
    10    10     1    1
    11     1     2   ar
    12     2     3   ar
    13     3    23    1
    14    23    24    1
    15    24    25    1
    16    25    27    1
    17    27    28    2
    18    27    29    2
    19    27    30    1
    20    30    31   ar
    21    31    32   ar
    22    32    33   ar
    23    33    36    1
    24    36    37    1
    25    33    34   ar
    26    34    35   ar
    27     3     4   ar
    28     4     5   ar
    29     5     6   ar
    30     6     7   ar
    31     7     8   ar
    32     8     9   ar
    33    18    19   ar
    34    19    20   ar
    35    20    15   ar
    36     9     1   ar
    37    35    30   ar
    38     9     4   ar
    39    11    14    1
    40    25    26    1
