@<TRIPOS>MOLECULE
*****
 41 44 0 0 0
SMALL
GASTEIGER

@<TRIPOS>ATOM
      1 C         141.8285  142.3573  162.7502 C.3     1  UNL1        0.0800
      2 C         142.2058  142.3976  164.2015 C.ar    1  UNL1        0.0374
      3 C         141.1590  142.1851  165.2547 C.ar    1  UNL1        0.0023
      4 C         141.5363  142.2253  166.7059 C.ar    1  UNL1        0.0181
      5 C         140.4896  142.0128  167.7591 C.ar    1  UNL1        0.0082
      6 C         140.8669  142.0530  169.2103 C.ar    1  UNL1        0.0347
      7 BR        139.8201  141.8405  170.2636 Br      1  UNL1       -0.0490
      8 C         142.2908  142.3058  169.6083 C.ar    1  UNL1        0.0082
      9 C         143.3375  142.5183  168.5552 C.ar    1  UNL1        0.0197
     10 C         142.9603  142.4780  167.1040 C.ar    1  UNL1        0.0844
     11 N         144.0070  142.6906  166.0507 N.ar    1  UNL1       -0.2119
     12 C         143.6297  142.6503  164.5995 C.ar    1  UNL1        0.2211
     13 O         144.6765  142.8628  163.5463 O.3     1  UNL1       -0.4563
     14 C         145.6559  141.7713  163.2313 C.3     1  UNL1        0.2542
     15 C         142.0362  141.1020  161.9558 C.ar    1  UNL1        0.0148
     16 C         142.8445  141.1389  160.6928 C.ar    1  UNL1       -0.0014
     17 C         143.0522  139.8836  159.8984 C.ar    1  UNL1        0.0029
     18 C         142.4516  138.5914  160.3671 C.ar    1  UNL1        0.0392
     19 C         141.6433  138.5546  161.6301 C.ar    1  UNL1        0.1657
     20 C         141.4356  139.8099  162.4245 C.ar    1  UNL1        0.1702
     21 F         140.6273  139.7731  163.6876 F       1  UNL1       -0.2013
     22 O         141.0427  137.2625  162.0988 O.3     1  UNL1       -0.4692
     23 C         141.0751  136.9051  163.5552 C.3     1  UNL1        0.2526
     24 C         141.2436  143.5724  162.0934 C.3     1  UNL1        0.1189
     25 O         142.6247  144.0970  161.8340 O.3     1  UNL1       -0.3819
     26 H         142.5658  144.9509  161.3776 H       1  UNL1        0.2107
     27 C         137.9588  141.3622  161.8191 C.ar    1  UNL1        0.2249
     28 C         139.3399  141.8868  161.5597 C.ar    1  UNL1        0.0587
     29 C         139.8625  143.0478  162.3528 C.ar    1  UNL1        0.0426
     30 C         139.0039  143.6841  163.4053 C.ar    1  UNL1        0.1562
     31 C         137.6228  143.1595  163.6647 C.ar    1  UNL1        0.1385
     32 N         137.1002  141.9986  162.8716 N.ar    1  UNL1       -0.2070
     33 C         137.7158  138.7982  161.4770 C.3     1  UNL1        0.2542
     34 O         137.4363  140.2012  161.0259 O.3     1  UNL1       -0.4561
     35 O         139.5264  144.8452  164.1985 O.3     1  UNL1       -0.4701
     36 C         138.6744  144.9208  165.4308 C.3     1  UNL1        0.2525
     37 C         140.6587  144.7875  161.4366 C.3     1  UNL1        0.0492
     38 C         141.1850  145.2497  160.1101 C.3     1  UNL1        0.0750
     39 N         141.2401  144.2977  158.9522 N.3     1  UNL1       -0.2702
     40 C         139.9782  143.6758  158.4318 C.3     1  UNL1        0.0897
     41 C         142.5571  143.9677  158.3146 C.3     1  UNL1        0.0897
@<TRIPOS>BOND
     1    33    34    1
     2    34    27    1
     3    27    28   ar
     4    28    29   ar
     5    29    24    1
     6    24    25    1
     7    24    37    1
     8    37    38    1
     9    38    39    1
    10    39    40    1
    11    39    41    1
    12    24     1    1
    13     1     2    1
    14     2     3   ar
    15     3     4   ar
    16     4     5   ar
    17     5     6   ar
    18     6     7    1
    19     6     8   ar
    20     8     9   ar
    21     9    10   ar
    22    10    11   ar
    23    11    12   ar
    24    12    13    1
    25    13    14    1
    26     1    15    1
    27    15    16   ar
    28    16    17   ar
    29    17    18   ar
    30    18    19   ar
    31    19    22    1
    32    22    23    1
    33    19    20   ar
    34    20    21    1
    35    29    30   ar
    36    30    35    1
    37    35    36    1
    38    30    31   ar
    39    31    32   ar
    40    32    27   ar
    41    12     2   ar
    42    20    15   ar
    43    10     4   ar
    44    25    26    1
@<TRIPOS>MOLECULE
*****
 41 44 0 0 0
SMALL
GASTEIGER

@<TRIPOS>ATOM
      1 C         141.0428  141.8689  165.1306 C.3     1  UNL1        0.0800
      2 C         140.8066  142.8468  164.0179 C.ar    1  UNL1        0.0374
      3 C         141.3514  142.5701  162.6480 C.ar    1  UNL1        0.0023
      4 C         141.1151  143.5480  161.5353 C.ar    1  UNL1        0.0181
      5 C         141.6600  143.2714  160.1654 C.ar    1  UNL1        0.0082
      6 C         141.4237  144.2492  159.0528 C.ar    1  UNL1        0.0347
      7 BR        141.9685  143.9726  157.6829 Br      1  UNL1       -0.0490
      8 C         140.6427  145.5037  159.3101 C.ar    1  UNL1        0.0082
      9 C         140.0978  145.7804  160.6800 C.ar    1  UNL1        0.0197
     10 C         140.3341  144.8025  161.7926 C.ar    1  UNL1        0.0844
     11 N         139.7893  145.0791  163.1626 N.ar    1  UNL1       -0.2119
     12 C         140.0255  144.1013  164.2752 C.ar    1  UNL1        0.2211
     13 O         139.4807  144.3779  165.6451 O.3     1  UNL1       -0.4563
     14 C         138.1824  145.1127  165.8016 C.3     1  UNL1        0.2542
     15 C         140.1665  140.6589  165.2643 C.ar    1  UNL1        0.0148
     16 C         139.4857  140.3664  166.5685 C.ar    1  UNL1       -0.0014
     17 C         138.6094  139.1564  166.7023 C.ar    1  UNL1        0.0029
     18 C         138.4139  138.2388  165.5318 C.ar    1  UNL1        0.0392
     19 C         139.0947  138.5314  164.2276 C.ar    1  UNL1        0.1657
     20 C         139.9710  139.7414  164.0939 C.ar    1  UNL1        0.1702
     21 F         140.6519  140.0340  162.7897 F       1  UNL1       -0.2013
     22 O         138.8992  137.6139  163.0571 O.3     1  UNL1       -0.4692
     23 C         138.0737  138.0577  161.8860 C.3     1  UNL1        0.2526
     24 C         142.1554  142.1011  166.1095 C.3     1  UNL1        0.1189
     25 O         141.1546  142.5067  167.1507 O.3     1  UNL1       -0.3819
     26 H         141.6172  142.7357  167.9719 H       1  UNL1        0.2107
     27 C         144.2179  139.8659  163.5601 C.ar    1  UNL1        0.2249
     28 C         143.2172  140.2715  164.6013 C.ar    1  UNL1        0.0587
     29 C         143.1561  141.6955  165.0684 C.ar    1  UNL1        0.0426
     30 C         144.0958  142.7140  164.4943 C.ar    1  UNL1        0.1562
     31 C         145.0966  142.3084  163.4532 C.ar    1  UNL1        0.1385
     32 N         145.1576  140.8844  162.9861 N.ar    1  UNL1       -0.2070
     33 C         143.8281  138.0871  161.7070 C.3     1  UNL1        0.2542
     34 O         144.2789  138.4417  163.0930 O.3     1  UNL1       -0.4561
     35 O         144.0348  144.1382  164.9614 O.3     1  UNL1       -0.4701
     36 C         143.7938  144.9659  163.7339 C.3     1  UNL1        0.2525
     37 C         143.2679  142.3333  167.0884 C.3     1  UNL1        0.0492
     38 C         143.0696  142.0101  168.5398 C.3     1  UNL1        0.0750
     39 N         142.4149  140.7207  168.9382 N.3     1  UNL1       -0.2702
     40 C         142.7423  139.4548  168.2033 C.3     1  UNL1        0.0897
     41 C         141.4327  140.6972  170.0717 C.3     1  UNL1        0.0897
@<TRIPOS>BOND
     1    33    34    1
     2    34    27    1
     3    27    28   ar
     4    28    29   ar
     5    29    24    1
     6    24    25    1
     7    24    37    1
     8    37    38    1
     9    38    39    1
    10    39    40    1
    11    39    41    1
    12    24     1    1
    13     1     2    1
    14     2     3   ar
    15     3     4   ar
    16     4     5   ar
    17     5     6   ar
    18     6     7    1
    19     6     8   ar
    20     8     9   ar
    21     9    10   ar
    22    10    11   ar
    23    11    12   ar
    24    12    13    1
    25    13    14    1
    26     1    15    1
    27    15    16   ar
    28    16    17   ar
    29    17    18   ar
    30    18    19   ar
    31    19    22    1
    32    22    23    1
    33    19    20   ar
    34    20    21    1
    35    29    30   ar
    36    30    35    1
    37    35    36    1
    38    30    31   ar
    39    31    32   ar
    40    32    27   ar
    41    12     2   ar
    42    20    15   ar
    43    10     4   ar
    44    25    26    1
@<TRIPOS>MOLECULE
*****
 41 44 0 0 0
SMALL
GASTEIGER

@<TRIPOS>ATOM
      1 C         142.0277  140.8716  163.0228 C.3     1  UNL1        0.0800
      2 C         142.3191  141.2305  164.4499 C.ar    1  UNL1        0.0374
      3 C         141.5092  140.6227  165.5565 C.ar    1  UNL1        0.0023
      4 C         141.8006  140.9816  166.9835 C.ar    1  UNL1        0.0181
      5 C         140.9908  140.3737  168.0901 C.ar    1  UNL1        0.0082
      6 C         141.2822  140.7326  169.5170 C.ar    1  UNL1        0.0347
      7 BR        140.4724  140.1247  170.6238 Br      1  UNL1       -0.0490
      8 C         142.3835  141.6994  169.8374 C.ar    1  UNL1        0.0082
      9 C         143.1933  142.3072  168.7308 C.ar    1  UNL1        0.0197
     10 C         142.9019  141.9483  167.3038 C.ar    1  UNL1        0.0844
     11 N         143.7117  142.5562  166.1971 N.ar    1  UNL1       -0.2119
     12 C         143.4203  142.1973  164.7702 C.ar    1  UNL1        0.2211
     13 O         144.2302  142.8052  163.6635 O.3     1  UNL1       -0.4563
     14 C         144.0480  144.2509  163.3078 C.3     1  UNL1        0.2542
     15 C         141.2999  141.8409  162.1393 C.ar    1  UNL1        0.0148
     16 C         141.9653  142.3777  160.9068 C.ar    1  UNL1       -0.0014
     17 C         141.2375  143.3470  160.0232 C.ar    1  UNL1        0.0029
     18 C         139.8442  143.7796  160.3722 C.ar    1  UNL1        0.0392
     19 C         139.1788  143.2428  161.6047 C.ar    1  UNL1        0.1657
     20 C         139.9067  142.2735  162.4882 C.ar    1  UNL1        0.1702
     21 F         139.2412  141.7367  163.7207 F       1  UNL1       -0.2013
     22 O         137.7856  143.6754  161.9536 O.3     1  UNL1       -0.4692
     23 C         137.5259  144.4019  163.2400 C.3     1  UNL1        0.2526
     24 C         142.4641  139.5434  162.4794 C.3     1  UNL1        0.1189
     25 O         143.8696  140.0537  162.3609 O.3     1  UNL1       -0.3819
     26 H         144.4387  139.3539  162.0040 H       1  UNL1        0.2107
     27 C         139.1479  138.0157  164.0347 C.ar    1  UNL1        0.2249
     28 C         140.5534  138.5261  163.9162 C.ar    1  UNL1        0.0587
     29 C         141.0586  139.0330  162.5979 C.ar    1  UNL1        0.0426
     30 C         140.1582  139.0297  161.3983 C.ar    1  UNL1        0.1562
     31 C         138.7527  138.5194  161.5168 C.ar    1  UNL1        0.1385
     32 N         138.2475  138.0124  162.8350 N.ar    1  UNL1       -0.2070
     33 C         138.1187  138.4723  166.3762 C.3     1  UNL1        0.2542
     34 O         138.6427  137.5087  165.3530 O.3     1  UNL1       -0.4561
     35 O         140.6633  139.5367  160.0800 O.3     1  UNL1       -0.4701
     36 C         139.4553  140.0165  159.3313 C.3     1  UNL1        0.2525
     37 C         142.9005  138.2151  161.9360 C.3     1  UNL1        0.0492
     38 C         143.9083  138.1531  160.8267 C.3     1  UNL1        0.0750
     39 N         143.5201  138.5629  159.4369 N.3     1  UNL1       -0.2702
     40 C         142.7915  137.5999  158.5471 C.3     1  UNL1        0.0897
     41 C         143.8605  139.9356  158.9370 C.3     1  UNL1        0.0897
@<TRIPOS>BOND
     1    33    34    1
     2    34    27    1
     3    27    28   ar
     4    28    29   ar
     5    29    24    1
     6    24    25    1
     7    24    37    1
     8    37    38    1
     9    38    39    1
    10    39    40    1
    11    39    41    1
    12    24     1    1
    13     1     2    1
    14     2     3   ar
    15     3     4   ar
    16     4     5   ar
    17     5     6   ar
    18     6     7    1
    19     6     8   ar
    20     8     9   ar
    21     9    10   ar
    22    10    11   ar
    23    11    12   ar
    24    12    13    1
    25    13    14    1
    26     1    15    1
    27    15    16   ar
    28    16    17   ar
    29    17    18   ar
    30    18    19   ar
    31    19    22    1
    32    22    23    1
    33    19    20   ar
    34    20    21    1
    35    29    30   ar
    36    30    35    1
    37    35    36    1
    38    30    31   ar
    39    31    32   ar
    40    32    27   ar
    41    12     2   ar
    42    20    15   ar
    43    10     4   ar
    44    25    26    1
@<TRIPOS>MOLECULE
*****
 41 44 0 0 0
SMALL
GASTEIGER

@<TRIPOS>ATOM
      1 C         140.3875  140.4778  162.9289 C.3     1  UNL1        0.0800
      2 C         140.2363  140.4102  164.4198 C.ar    1  UNL1        0.0374
      3 C         140.4166  141.6472  165.2488 C.ar    1  UNL1        0.0023
      4 C         140.2655  141.5796  166.7396 C.ar    1  UNL1        0.0181
      5 C         140.4458  142.8166  167.5686 C.ar    1  UNL1        0.0082
      6 C         140.2947  142.7489  169.0594 C.ar    1  UNL1        0.0347
      7 BR        140.4749  143.9859  169.8885 Br      1  UNL1       -0.0490
      8 C         139.9633  141.4442  169.7212 C.ar    1  UNL1        0.0082
      9 C         139.7830  140.2072  168.8923 C.ar    1  UNL1        0.0197
     10 C         139.9341  140.2749  167.4015 C.ar    1  UNL1        0.0844
     11 N         139.7539  139.0378  166.5724 N.ar    1  UNL1       -0.2119
     12 C         139.9050  139.1055  165.0816 C.ar    1  UNL1        0.2211
     13 O         139.7247  137.8685  164.2525 O.3     1  UNL1       -0.4563
     14 C         140.8629  136.9062  164.0839 C.3     1  UNL1        0.2542
     15 C         141.7171  140.1921  162.2961 C.ar    1  UNL1        0.0148
     16 C         141.8505  139.0765  161.3022 C.ar    1  UNL1       -0.0014
     17 C         143.1801  138.7908  160.6694 C.ar    1  UNL1        0.0029
     18 C         144.3764  139.6207  161.0305 C.ar    1  UNL1        0.0392
     19 C         144.2429  140.7363  162.0243 C.ar    1  UNL1        0.1657
     20 C         142.9133  141.0220  162.6571 C.ar    1  UNL1        0.1702
     21 F         142.7798  142.1376  163.6509 F       1  UNL1       -0.2013
     22 O         145.4391  141.5662  162.3853 O.3     1  UNL1       -0.4692
     23 C         145.9407  141.5839  163.7988 C.3     1  UNL1        0.2526
     24 C         139.2089  140.8312  162.0709 C.3     1  UNL1        0.1189
     25 O         138.7247  139.4138  162.1522 O.3     1  UNL1       -0.3819
     26 H         137.9018  139.3237  161.6466 H       1  UNL1        0.2107
     27 C         141.3020  144.0223  160.9820 C.ar    1  UNL1        0.2249
     28 C         140.8178  142.6049  161.0633 C.ar    1  UNL1        0.0587
     29 C         139.6931  142.2485  161.9895 C.ar    1  UNL1        0.0426
     30 C         139.0525  143.3096  162.8344 C.ar    1  UNL1        0.1562
     31 C         139.5367  144.7270  162.7530 C.ar    1  UNL1        0.1385
     32 N         140.6614  145.0833  161.8268 N.ar    1  UNL1       -0.2070
     33 C         142.5972  143.6373  158.7629 C.3     1  UNL1        0.2542
     34 O         142.4268  144.3786  160.0557 O.3     1  UNL1       -0.4561
     35 O         137.9277  142.9532  163.7606 O.3     1  UNL1       -0.4701
     36 C         137.7573  144.1296  164.6756 C.3     1  UNL1        0.2525
     37 C         138.0304  141.1845  161.2129 C.3     1  UNL1        0.0492
     38 C         137.5067  140.1957  160.2137 C.3     1  UNL1        0.0750
     39 N         138.1612  140.0692  158.8700 N.3     1  UNL1       -0.2702
     40 C         139.3157  139.1299  158.6835 C.3     1  UNL1        0.0897
     41 C         137.6611  140.8820  157.7127 C.3     1  UNL1        0.0897
@<TRIPOS>BOND
     1    33    34    1
     2    34    27    1
     3    27    28   ar
     4    28    29   ar
     5    29    24    1
     6    24    25    1
     7    24    37    1
     8    37    38    1
     9    38    39    1
    10    39    40    1
    11    39    41    1
    12    24     1    1
    13     1     2    1
    14     2     3   ar
    15     3     4   ar
    16     4     5   ar
    17     5     6   ar
    18     6     7    1
    19     6     8   ar
    20     8     9   ar
    21     9    10   ar
    22    10    11   ar
    23    11    12   ar
    24    12    13    1
    25    13    14    1
    26     1    15    1
    27    15    16   ar
    28    16    17   ar
    29    17    18   ar
    30    18    19   ar
    31    19    22    1
    32    22    23    1
    33    19    20   ar
    34    20    21    1
    35    29    30   ar
    36    30    35    1
    37    35    36    1
    38    30    31   ar
    39    31    32   ar
    40    32    27   ar
    41    12     2   ar
    42    20    15   ar
    43    10     4   ar
    44    25    26    1
@<TRIPOS>MOLECULE
*****
 41 44 0 0 0
SMALL
GASTEIGER

@<TRIPOS>ATOM
      1 C         141.6175  141.1328  163.2311 C.3     1  UNL1        0.0800
      2 C         142.0829  141.4752  164.6154 C.ar    1  UNL1        0.0374
      3 C         141.3623  140.9196  165.8079 C.ar    1  UNL1        0.0023
      4 C         141.8277  141.2621  167.1922 C.ar    1  UNL1        0.0181
      5 C         141.1072  140.7065  168.3846 C.ar    1  UNL1        0.0082
      6 C         141.5726  141.0490  169.7688 C.ar    1  UNL1        0.0347
      7 BR        140.8520  140.4934  170.9614 Br      1  UNL1       -0.0490
      8 C         142.7586  141.9471  169.9605 C.ar    1  UNL1        0.0082
      9 C         143.4792  142.5027  168.7681 C.ar    1  UNL1        0.0197
     10 C         143.0138  142.1602  167.3839 C.ar    1  UNL1        0.0844
     11 N         143.7344  142.7158  166.1913 N.ar    1  UNL1       -0.2119
     12 C         143.2689  142.3733  164.8071 C.ar    1  UNL1        0.2211
     13 O         143.9895  142.9289  163.6146 O.3     1  UNL1       -0.4563
     14 C         144.0209  144.4102  163.3803 C.3     1  UNL1        0.2542
     15 C         142.4309  140.2095  162.3733 C.ar    1  UNL1        0.0148
     16 C         142.7416  138.8217  162.8502 C.ar    1  UNL1       -0.0014
     17 C         143.5551  137.8984  161.9924 C.ar    1  UNL1        0.0029
     18 C         144.0579  138.3630  160.6577 C.ar    1  UNL1        0.0392
     19 C         143.7471  139.7508  160.1808 C.ar    1  UNL1        0.1657
     20 C         142.9336  140.6741  161.0387 C.ar    1  UNL1        0.1702
     21 F         142.6229  142.0619  160.5618 F       1  UNL1       -0.2013
     22 O         144.2499  140.2154  158.8461 O.3     1  UNL1       -0.4692
     23 C         143.4856  139.8819  157.5993 C.3     1  UNL1        0.2526
     24 C         140.3386  141.7136  162.7047 C.3     1  UNL1        0.1189
     25 O         140.9678  143.0750  162.6783 O.3     1  UNL1       -0.3819
     26 H         140.3237  143.7225  162.3516 H       1  UNL1        0.2107
     27 C         138.7338  138.3500  164.0689 C.ar    1  UNL1        0.2249
     28 C         139.3629  139.7114  164.0424 C.ar    1  UNL1        0.0587
     29 C         139.7094  140.3522  162.7312 C.ar    1  UNL1        0.0426
     30 C         139.4267  139.6315  161.4464 C.ar    1  UNL1        0.1562
     31 C         138.7975  138.2701  161.4729 C.ar    1  UNL1        0.1385
     32 N         138.4510  137.6293  162.7841 N.ar    1  UNL1       -0.2070
     33 C         137.9945  138.5612  166.5507 C.3     1  UNL1        0.2542
     34 O         138.3873  137.7092  165.3802 O.3     1  UNL1       -0.4561
     35 O         139.7731  140.2723  160.1351 O.3     1  UNL1       -0.4701
     36 C         140.0821  139.1461  159.1937 C.3     1  UNL1        0.2525
     37 C         139.0597  142.2944  162.1783 C.3     1  UNL1        0.0492
     38 C         138.1730  143.0984  163.0825 C.3     1  UNL1        0.0750
     39 N         138.6069  144.4584  163.5429 N.3     1  UNL1       -0.2702
     40 C         138.9496  145.5168  162.5368 C.3     1  UNL1        0.0897
     41 C         138.6982  144.7601  165.0095 C.3     1  UNL1        0.0897
@<TRIPOS>BOND
     1    33    34    1
     2    34    27    1
     3    27    28   ar
     4    28    29   ar
     5    29    24    1
     6    24    25    1
     7    24    37    1
     8    37    38    1
     9    38    39    1
    10    39    40    1
    11    39    41    1
    12    24     1    1
    13     1     2    1
    14     2     3   ar
    15     3     4   ar
    16     4     5   ar
    17     5     6   ar
    18     6     7    1
    19     6     8   ar
    20     8     9   ar
    21     9    10   ar
    22    10    11   ar
    23    11    12   ar
    24    12    13    1
    25    13    14    1
    26     1    15    1
    27    15    16   ar
    28    16    17   ar
    29    17    18   ar
    30    18    19   ar
    31    19    22    1
    32    22    23    1
    33    19    20   ar
    34    20    21    1
    35    29    30   ar
    36    30    35    1
    37    35    36    1
    38    30    31   ar
    39    31    32   ar
    40    32    27   ar
    41    12     2   ar
    42    20    15   ar
    43    10     4   ar
    44    25    26    1
@<TRIPOS>MOLECULE
*****
 41 44 0 0 0
SMALL
GASTEIGER

@<TRIPOS>ATOM
      1 C         140.8680  140.6884  163.1567 C.3     1  UNL1        0.0800
      2 C         140.4996  140.5824  164.6070 C.ar    1  UNL1        0.0374
      3 C         140.7310  141.7447  165.5264 C.ar    1  UNL1        0.0023
      4 C         140.3627  141.6387  166.9767 C.ar    1  UNL1        0.0181
      5 C         140.5941  142.8010  167.8962 C.ar    1  UNL1        0.0082
      6 C         140.2258  142.6950  169.3463 C.ar    1  UNL1        0.0347
      7 BR        140.4572  143.8573  170.2659 Br      1  UNL1       -0.0490
      8 C         139.6260  141.4266  169.8770 C.ar    1  UNL1        0.0082
      9 C         139.3946  140.2643  168.9576 C.ar    1  UNL1        0.0197
     10 C         139.7630  140.3704  167.5074 C.ar    1  UNL1        0.0844
     11 N         139.5316  139.2080  166.5878 N.ar    1  UNL1       -0.2119
     12 C         139.8999  139.3140  165.1377 C.ar    1  UNL1        0.2211
     13 O         139.6685  138.1517  164.2181 O.3     1  UNL1       -0.4563
     14 C         140.6121  136.9858  164.2310 C.3     1  UNL1        0.2542
     15 C         141.9514  139.8179  162.5925 C.ar    1  UNL1        0.0148
     16 C         143.3055  139.7931  163.2373 C.ar    1  UNL1       -0.0014
     17 C         144.3890  138.9226  162.6731 C.ar    1  UNL1        0.0029
     18 C         144.1183  138.0769  161.4641 C.ar    1  UNL1        0.0392
     19 C         142.7642  138.1017  160.8193 C.ar    1  UNL1        0.1657
     20 C         141.6807  138.9723  161.3836 C.ar    1  UNL1        0.1702
     21 F         140.3266  138.9971  160.7388 F       1  UNL1       -0.2013
     22 O         142.4935  137.2561  159.6104 O.3     1  UNL1       -0.4692
     23 C         142.5767  137.8591  158.2395 C.3     1  UNL1        0.2526
     24 C         140.1528  141.6649  162.2707 C.3     1  UNL1        0.1189
     25 O         138.8673  140.9243  162.4921 O.3     1  UNL1       -0.3819
     26 H         138.1542  141.3600  161.9997 H       1  UNL1        0.2107
     27 C         143.3702  143.8826  162.9634 C.ar    1  UNL1        0.2249
     28 C         142.0847  143.1420  163.1849 C.ar    1  UNL1        0.0587
     29 C         141.4383  142.4054  162.0493 C.ar    1  UNL1        0.0426
     30 C         142.0774  142.4095  160.6923 C.ar    1  UNL1        0.1562
     31 C         143.3629  143.1500  160.4708 C.ar    1  UNL1        0.1385
     32 N         144.0093  143.8866  161.6064 N.ar    1  UNL1       -0.2070
     33 C         144.4913  143.8673  165.3072 C.3     1  UNL1        0.2542
     34 O         144.0166  144.6192  164.0991 O.3     1  UNL1       -0.4561
     35 O         141.4310  141.6729  159.5566 O.3     1  UNL1       -0.4701
     36 C         141.6105  142.5401  158.3460 C.3     1  UNL1        0.2525
     37 C         139.4376  142.6414  161.3847 C.3     1  UNL1        0.0492
     38 C         138.4848  143.6355  161.9797 C.3     1  UNL1        0.0750
     39 N         139.0089  144.7885  162.7833 N.3     1  UNL1       -0.2702
     40 C         139.6632  145.9482  162.0926 C.3     1  UNL1        0.0897
     41 C         138.8788  144.7819  164.2777 C.3     1  UNL1        0.0897
@<TRIPOS>BOND
     1    33    34    1
     2    34    27    1
     3    27    28   ar
     4    28    29   ar
     5    29    24    1
     6    24    25    1
     7    24    37    1
     8    37    38    1
     9    38    39    1
    10    39    40    1
    11    39    41    1
    12    24     1    1
    13     1     2    1
    14     2     3   ar
    15     3     4   ar
    16     4     5   ar
    17     5     6   ar
    18     6     7    1
    19     6     8   ar
    20     8     9   ar
    21     9    10   ar
    22    10    11   ar
    23    11    12   ar
    24    12    13    1
    25    13    14    1
    26     1    15    1
    27    15    16   ar
    28    16    17   ar
    29    17    18   ar
    30    18    19   ar
    31    19    22    1
    32    22    23    1
    33    19    20   ar
    34    20    21    1
    35    29    30   ar
    36    30    35    1
    37    35    36    1
    38    30    31   ar
    39    31    32   ar
    40    32    27   ar
    41    12     2   ar
    42    20    15   ar
    43    10     4   ar
    44    25    26    1
@<TRIPOS>MOLECULE
*****
 41 44 0 0 0
SMALL
GASTEIGER

@<TRIPOS>ATOM
      1 C         141.4874  141.5098  163.8177 C.3     1  UNL1        0.0800
      2 C         142.3900  141.8684  162.6744 C.ar    1  UNL1        0.0374
      3 C         142.3614  141.0569  161.4132 C.ar    1  UNL1        0.0023
      4 C         143.2639  141.4155  160.2700 C.ar    1  UNL1        0.0181
      5 C         143.2353  140.6040  159.0088 C.ar    1  UNL1        0.0082
      6 C         144.1378  140.9626  157.8657 C.ar    1  UNL1        0.0347
      7 BR        144.1092  140.1511  156.6044 Br      1  UNL1       -0.0490
      8 C         145.0689  142.1327  157.9837 C.ar    1  UNL1        0.0082
      9 C         145.0975  142.9442  159.2449 C.ar    1  UNL1        0.0197
     10 C         144.1950  142.5856  160.3880 C.ar    1  UNL1        0.0844
     11 N         144.2236  143.3971  161.6493 N.ar    1  UNL1       -0.2119
     12 C         143.3211  143.0385  162.7925 C.ar    1  UNL1        0.2211
     13 O         143.3497  143.8500  164.0537 O.3     1  UNL1       -0.4563
     14 C         144.4554  143.6523  165.0478 C.3     1  UNL1        0.2542
     15 C         142.0175  140.7065  164.9682 C.ar    1  UNL1        0.0148
     16 C         142.5403  139.3197  164.7369 C.ar    1  UNL1       -0.0014
     17 C         143.0703  138.5165  165.8875 C.ar    1  UNL1        0.0029
     18 C         143.0775  139.0999  167.2694 C.ar    1  UNL1        0.0392
     19 C         142.5546  140.4867  167.5006 C.ar    1  UNL1        0.1657
     20 C         142.0246  141.2900  166.3500 C.ar    1  UNL1        0.1702
     21 F         141.5017  142.6768  166.5813 F       1  UNL1       -0.2013
     22 O         142.5618  141.0702  168.8825 O.3     1  UNL1       -0.4692
     23 C         143.4824  142.2078  169.2114 C.3     1  UNL1        0.2526
     24 C         140.0549  141.9545  163.8103 C.3     1  UNL1        0.1189
     25 O         140.4968  143.3802  163.9596 O.3     1  UNL1       -0.3819
     26 H         139.7186  143.9586  163.9873 H       1  UNL1        0.2107
     27 C         139.3067  138.4108  162.1881 C.ar    1  UNL1        0.2249
     28 C         139.7485  139.8364  162.3374 C.ar    1  UNL1        0.0587
     29 C         139.6131  140.5289  163.6610 C.ar    1  UNL1        0.0426
     30 C         139.0358  139.7957  164.8354 C.ar    1  UNL1        0.1562
     31 C         138.5940  138.3701  164.6861 C.ar    1  UNL1        0.1385
     32 N         138.7294  137.6776  163.3624 N.ar    1  UNL1       -0.2070
     33 C         139.7563  138.5124  159.6312 C.3     1  UNL1        0.2542
     34 O         139.4421  137.7183  160.8643 O.3     1  UNL1       -0.4561
     35 O         138.9003  140.4882  166.1591 O.3     1  UNL1       -0.4701
     36 C         138.9321  139.4057  167.1970 C.3     1  UNL1        0.2525
     37 C         138.6224  142.3993  163.8029 C.3     1  UNL1        0.0492
     38 C         138.1613  143.4272  162.8125 C.3     1  UNL1        0.0750
     39 N         138.7728  143.4771  161.4437 N.3     1  UNL1       -0.2702
     40 C         139.7784  144.5388  161.1098 C.3     1  UNL1        0.0897
     41 C         138.3788  142.4652  160.4088 C.3     1  UNL1        0.0897
@<TRIPOS>BOND
     1    33    34    1
     2    34    27    1
     3    27    28   ar
     4    28    29   ar
     5    29    24    1
     6    24    25    1
     7    24    37    1
     8    37    38    1
     9    38    39    1
    10    39    40    1
    11    39    41    1
    12    24     1    1
    13     1     2    1
    14     2     3   ar
    15     3     4   ar
    16     4     5   ar
    17     5     6   ar
    18     6     7    1
    19     6     8   ar
    20     8     9   ar
    21     9    10   ar
    22    10    11   ar
    23    11    12   ar
    24    12    13    1
    25    13    14    1
    26     1    15    1
    27    15    16   ar
    28    16    17   ar
    29    17    18   ar
    30    18    19   ar
    31    19    22    1
    32    22    23    1
    33    19    20   ar
    34    20    21    1
    35    29    30   ar
    36    30    35    1
    37    35    36    1
    38    30    31   ar
    39    31    32   ar
    40    32    27   ar
    41    12     2   ar
    42    20    15   ar
    43    10     4   ar
    44    25    26    1
@<TRIPOS>MOLECULE
*****
 41 44 0 0 0
SMALL
GASTEIGER

@<TRIPOS>ATOM
      1 C         141.8774  140.9799  162.5082 C.3     1  UNL1        0.0800
      2 C         141.6720  140.7144  163.9702 C.ar    1  UNL1        0.0374
      3 C         141.3715  141.8494  164.9037 C.ar    1  UNL1        0.0023
      4 C         141.1661  141.5838  166.3657 C.ar    1  UNL1        0.0181
      5 C         140.8656  142.7188  167.2991 C.ar    1  UNL1        0.0082
      6 C         140.6602  142.4533  168.7610 C.ar    1  UNL1        0.0347
      7 BR        140.3597  143.5883  169.6946 Br      1  UNL1       -0.0490
      8 C         140.7554  141.0527  169.2895 C.ar    1  UNL1        0.0082
      9 C         141.0559  139.9177  168.3561 C.ar    1  UNL1        0.0197
     10 C         141.2613  140.1832  166.8941 C.ar    1  UNL1        0.0844
     11 N         141.5618  139.0482  165.9606 N.ar    1  UNL1       -0.2119
     12 C         141.7672  139.3138  164.4987 C.ar    1  UNL1        0.2211
     13 O         142.0677  138.1787  163.5652 O.3     1  UNL1       -0.4563
     14 C         141.0723  137.0710  163.3864 C.3     1  UNL1        0.2542
     15 C         141.1557  140.1516  161.4869 C.ar    1  UNL1        0.0148
     16 C         139.6581  140.0694  161.5102 C.ar    1  UNL1       -0.0014
     17 C         138.9365  139.2412  160.4889 C.ar    1  UNL1        0.0029
     18 C         139.7123  138.4951  159.4442 C.ar    1  UNL1        0.0392
     19 C         141.2099  138.5773  159.4208 C.ar    1  UNL1        0.1657
     20 C         141.9316  139.4056  160.4422 C.ar    1  UNL1        0.1702
     21 F         143.4291  139.4878  160.4189 F       1  UNL1       -0.2013
     22 O         141.9858  137.8313  158.3762 O.3     1  UNL1       -0.4692
     23 C         142.6448  138.5787  157.2550 C.3     1  UNL1        0.2526
     24 C         142.8044  142.0737  162.0676 C.3     1  UNL1        0.1189
     25 O         143.9507  141.3694  162.7310 O.3     1  UNL1       -0.3819
     26 H         144.7630  141.8845  162.6054 H       1  UNL1        0.2107
     27 C         139.3920  144.0377  161.5698 C.ar    1  UNL1        0.2249
     28 C         140.5382  143.3335  162.2332 C.ar    1  UNL1        0.0587
     29 C         141.6582  142.7780  161.4042 C.ar    1  UNL1        0.0426
     30 C         141.6318  142.9268  159.9119 C.ar    1  UNL1        0.1562
     31 C         140.4856  143.6311  159.2485 C.ar    1  UNL1        0.1385
     32 N         139.3657  144.1866  160.0775 N.ar    1  UNL1       -0.2070
     33 C         138.3287  144.5000  163.8949 C.3     1  UNL1        0.2542
     34 O         138.2720  144.5932  162.3988 O.3     1  UNL1       -0.4561
     35 O         142.7518  142.3714  159.0829 O.3     1  UNL1       -0.4701
     36 C         142.9320  143.3252  157.9393 C.3     1  UNL1        0.2525
     37 C         143.7315  143.1675  161.6270 C.3     1  UNL1        0.0492
     38 C         144.5747  143.8881  162.6369 C.3     1  UNL1        0.0750
     39 N         143.9792  144.3093  163.9476 N.3     1  UNL1       -0.2702
     40 C         142.8640  145.3119  163.9771 C.3     1  UNL1        0.0897
     41 C         144.4990  143.7277  165.2289 C.3     1  UNL1        0.0897
@<TRIPOS>BOND
     1    33    34    1
     2    34    27    1
     3    27    28   ar
     4    28    29   ar
     5    29    24    1
     6    24    25    1
     7    24    37    1
     8    37    38    1
     9    38    39    1
    10    39    40    1
    11    39    41    1
    12    24     1    1
    13     1     2    1
    14     2     3   ar
    15     3     4   ar
    16     4     5   ar
    17     5     6   ar
    18     6     7    1
    19     6     8   ar
    20     8     9   ar
    21     9    10   ar
    22    10    11   ar
    23    11    12   ar
    24    12    13    1
    25    13    14    1
    26     1    15    1
    27    15    16   ar
    28    16    17   ar
    29    17    18   ar
    30    18    19   ar
    31    19    22    1
    32    22    23    1
    33    19    20   ar
    34    20    21    1
    35    29    30   ar
    36    30    35    1
    37    35    36    1
    38    30    31   ar
    39    31    32   ar
    40    32    27   ar
    41    12     2   ar
    42    20    15   ar
    43    10     4   ar
    44    25    26    1
@<TRIPOS>MOLECULE
*****
 41 44 0 0 0
SMALL
GASTEIGER

@<TRIPOS>ATOM
      1 C         141.4647  141.8430  160.6835 C.3     1  UNL1        0.0800
      2 C         141.0685  140.6510  161.5036 C.ar    1  UNL1        0.0374
      3 C         140.2489  140.8346  162.7464 C.ar    1  UNL1        0.0023
      4 C         139.8528  139.6427  163.5664 C.ar    1  UNL1        0.0181
      5 C         139.0332  139.8263  164.8092 C.ar    1  UNL1        0.0082
      6 C         138.6370  138.6344  165.6292 C.ar    1  UNL1        0.0347
      7 BR        137.8174  138.8179  166.8720 Br      1  UNL1       -0.0490
      8 C         139.0606  137.2589  165.2064 C.ar    1  UNL1        0.0082
      9 C         139.8802  137.0753  163.9637 C.ar    1  UNL1        0.0197
     10 C         140.2763  138.2672  163.1437 C.ar    1  UNL1        0.0844
     11 N         141.0959  138.0837  161.9009 N.ar    1  UNL1       -0.2119
     12 C         141.4920  139.2756  161.0809 C.ar    1  UNL1        0.2211
     13 O         142.3117  139.0920  159.8380 O.3     1  UNL1       -0.4563
     14 C         141.7304  138.3756  158.6553 C.3     1  UNL1        0.2542
     15 C         140.9077  142.0216  159.3023 C.ar    1  UNL1        0.0148
     16 C         141.8299  142.0496  158.1196 C.ar    1  UNL1       -0.0014
     17 C         141.2729  142.2283  156.7384 C.ar    1  UNL1        0.0029
     18 C         139.7937  142.3790  156.5398 C.ar    1  UNL1        0.0392
     19 C         138.8716  142.3510  157.7225 C.ar    1  UNL1        0.1657
     20 C         139.4286  142.1724  159.1038 C.ar    1  UNL1        0.1702
     21 F         138.5065  142.1444  160.2865 F       1  UNL1       -0.2013
     22 O         137.3925  142.5018  157.5240 O.3     1  UNL1       -0.4692
     23 C         136.6760  141.6312  156.5347 C.3     1  UNL1        0.2526
     24 C         142.4178  142.8562  161.2448 C.3     1  UNL1        0.1189
     25 O         143.5367  141.8628  161.1379 O.3     1  UNL1       -0.3819
     26 H         144.3590  142.2664  161.4571 H       1  UNL1        0.2107
     27 C         139.1636  144.7127  162.5538 C.ar    1  UNL1        0.2249
     28 C         140.2825  143.7193  162.4469 C.ar    1  UNL1        0.0587
     29 C         141.2989  143.8495  161.3516 C.ar    1  UNL1        0.0426
     30 C         141.1965  144.9730  160.3631 C.ar    1  UNL1        0.1562
     31 C         140.0777  145.9664  160.4699 C.ar    1  UNL1        0.1385
     32 N         139.0612  145.8362  161.5653 N.ar    1  UNL1       -0.2070
     33 C         138.2911  143.5038  164.6815 C.3     1  UNL1        0.2542
     34 O         138.1471  144.5825  163.6492 O.3     1  UNL1       -0.4561
     35 O         142.2130  145.1032  159.2677 O.3     1  UNL1       -0.4701
     36 C         141.4847  145.6917  158.0958 C.3     1  UNL1        0.2525
     37 C         143.3709  143.8694  161.8060 C.3     1  UNL1        0.0492
     38 C         144.6840  143.4264  162.3803 C.3     1  UNL1        0.0750
     39 N         144.7150  142.6086  163.6375 N.3     1  UNL1       -0.2702
     40 C         143.7154  142.8676  164.7255 C.3     1  UNL1        0.0897
     41 C         145.7456  141.5319  163.8065 C.3     1  UNL1        0.0897
@<TRIPOS>BOND
     1    33    34    1
     2    34    27    1
     3    27    28   ar
     4    28    29   ar
     5    29    24    1
     6    24    25    1
     7    24    37    1
     8    37    38    1
     9    38    39    1
    10    39    40    1
    11    39    41    1
    12    24     1    1
    13     1     2    1
    14     2     3   ar
    15     3     4   ar
    16     4     5   ar
    17     5     6   ar
    18     6     7    1
    19     6     8   ar
    20     8     9   ar
    21     9    10   ar
    22    10    11   ar
    23    11    12   ar
    24    12    13    1
    25    13    14    1
    26     1    15    1
    27    15    16   ar
    28    16    17   ar
    29    17    18   ar
    30    18    19   ar
    31    19    22    1
    32    22    23    1
    33    19    20   ar
    34    20    21    1
    35    29    30   ar
    36    30    35    1
    37    35    36    1
    38    30    31   ar
    39    31    32   ar
    40    32    27   ar
    41    12     2   ar
    42    20    15   ar
    43    10     4   ar
    44    25    26    1
