@<TRIPOS>MOLECULE
*****
 34 38 0 0 0
SMALL
GASTEIGER

@<TRIPOS>ATOM
      1 C         141.3438  141.6812  166.4142 C.2     1  UNL1        0.3308
      2 N         140.2050  141.2129  165.5577 N.2     1  UNL1       -0.0045
      3 C         139.1737  140.2826  166.1242 C.2     1  UNL1        0.3072
      4 C         139.2811  139.8207  167.5472 C.3     1  UNL1        0.1631
      5 C         140.4199  140.2891  168.4038 C.2     1  UNL1        0.0844
      6 N         140.5274  139.8272  169.8269 N.2     1  UNL1       -0.2296
      7 C         141.6662  140.2956  170.6834 C.2     1  UNL1        0.1880
      8 N         142.6976  141.2258  170.1169 N.am    1  UNL1       -0.1535
      9 C         142.5901  141.6877  168.6939 C.2     1  UNL1        0.2788
     10 O         143.6215  142.6180  168.1274 O.2     1  UNL1       -0.2677
     11 C         141.4513  141.2193  167.8374 C.2     1  UNL1        0.1515
     12 N         142.3752  142.6115  165.8477 N.pl3   1  UNL1       -0.2134
     13 H         142.5293  143.4892  166.2662 H       1  UNL1        0.2928
     14 C         143.5598  142.9595  159.4872 C.3     1  UNL1        0.0327
     15 C         143.0653  143.0736  160.8987 C.2     1  UNL1       -0.0015
     16 C         141.9202  143.9224  161.3659 C.2     1  UNL1        0.0944
     17 N         141.7763  143.7323  162.8468 N.2     1  UNL1       -0.2442
     18 C         142.8325  142.7661  163.2949 C.2     1  UNL1        0.1052
     19 C         143.1719  142.2044  164.6438 C.3     1  UNL1        0.2198
     20 C         144.3079  141.2356  164.7886 C.2     1  UNL1        0.0258
     21 C         145.1045  140.8285  163.5846 C.2     1  UNL1       -0.0002
     22 C         144.7652  141.3902  162.2357 C.2     1  UNL1        0.0009
     23 C         143.6292  142.3590  162.0909 C.2     1  UNL1        0.0153
     24 N         138.0348  139.8143  165.2675 N.pl3   1  UNL1       -0.2243
     25 H         137.1273  139.7549  165.6445 H       1  UNL1        0.2918
     26 C         138.2787  139.4363  163.8366 C.3     1  UNL1        0.1704
     27 C         139.1343  138.2483  163.5100 C.3     1  UNL1        0.0478
     28 C         139.3782  137.8704  162.0791 C.3     1  UNL1        0.0042
     29 C         138.7665  138.6805  160.9746 C.3     1  UNL1        0.0016
     30 C         137.9109  139.8684  161.3012 C.3     1  UNL1        0.0196
     31 C         137.6670  140.2463  162.7323 C.3     1  UNL1        0.0939
     32 N         136.8114  141.4343  163.0589 N.3     1  UNL1       -0.3190
     33 H         136.4813  141.8635  162.1944 H       1  UNL1        0.1189
     34 H         137.3594  142.1129  163.5877 H       1  UNL1        0.1189
@<TRIPOS>BOND
     1    14    15    1
     2    15    16    2
     3    16    17    1
     4    17    18    2
     5    18    19    1
     6    19    12    1
     7    12     1    1
     8     1     2    1
     9     2     3    2
    10     3    24    1
    11    26    24    1
    12    26    27    1
    13    27    28    1
    14    28    29    1
    15    29    30    1
    16    30    31    1
    17    31    32    1
    18     3     4    1
    19     4     5    1
    20     5     6    2
    21     6     7    1
    22     7     8    2
    23     8     9    1
    24     9    10    2
    25     9    11    1
    26    19    20    1
    27    20    21    2
    28    21    22    1
    29    22    23    2
    30    23    15    1
    31    23    18    1
    32    11     1    2
    33    31    26    1
    34    11     5    1
    35    12    13    1
    36    24    25    1
    37    32    33    1
    38    32    34    1
@<TRIPOS>MOLECULE
*****
 34 38 0 0 0
SMALL
GASTEIGER

@<TRIPOS>ATOM
      1 C         140.9489  140.3510  166.9098 C.2     1  UNL1        0.3308
      2 N         142.0500  140.7442  165.9702 N.2     1  UNL1       -0.0045
      3 C         143.0365  141.8007  166.3709 C.2     1  UNL1        0.3072
      4 C         142.9220  142.4640  167.7113 C.3     1  UNL1        0.1631
      5 C         141.8209  142.0709  168.6511 C.2     1  UNL1        0.0844
      6 N         141.7063  142.7342  169.9915 N.2     1  UNL1       -0.2296
      7 C         140.6053  142.3411  170.9312 C.2     1  UNL1        0.1880
      8 N         139.6188  141.2846  170.5305 N.am    1  UNL1       -0.1535
      9 C         139.7333  140.6212  169.1901 C.2     1  UNL1        0.2788
     10 O         138.7468  139.5647  168.7893 O.2     1  UNL1       -0.2677
     11 C         140.8344  141.0144  168.2504 C.2     1  UNL1        0.1515
     12 N         139.9624  139.2945  166.5091 N.pl3   1  UNL1       -0.2134
     13 H         139.3573  138.9057  167.1813 H       1  UNL1        0.2928
     14 C         137.5741  139.8198  160.5090 C.3     1  UNL1        0.0327
     15 C         137.9473  139.9312  161.9576 C.2     1  UNL1       -0.0015
     16 C         137.4064  140.9344  162.9328 C.2     1  UNL1        0.0944
     17 N         138.0518  140.6822  164.2632 N.2     1  UNL1       -0.2442
     18 C         138.9916  139.5232  164.1101 C.2     1  UNL1        0.1052
     19 C         139.8978  138.8304  165.0842 C.3     1  UNL1        0.2198
     20 C         140.7396  137.6736  164.6333 C.2     1  UNL1        0.0258
     21 C         140.6750  137.2095  163.2084 C.2     1  UNL1       -0.0002
     22 C         139.7687  137.9022  162.2343 C.2     1  UNL1        0.0009
     23 C         138.9271  139.0591  162.6852 C.2     1  UNL1        0.0153
     24 N         144.1376  142.1938  165.4311 N.pl3   1  UNL1       -0.2243
     25 H         145.0760  142.1464  165.7250 H       1  UNL1        0.2918
     26 C         143.8089  142.6592  164.0436 C.3     1  UNL1        0.1704
     27 C         142.4852  143.3069  163.7636 C.3     1  UNL1        0.0478
     28 C         142.1565  143.7723  162.3761 C.3     1  UNL1        0.0042
     29 C         143.1515  143.5901  161.2684 C.3     1  UNL1        0.0016
     30 C         144.4752  142.9424  161.5484 C.3     1  UNL1        0.0196
     31 C         144.8039  142.4770  162.9360 C.3     1  UNL1        0.0939
     32 N         146.1276  141.8293  163.2160 N.3     1  UNL1       -0.3190
     33 H         146.6742  141.7873  162.3559 H       1  UNL1        0.1189
     34 H         145.9759  140.8844  163.5689 H       1  UNL1        0.1189
@<TRIPOS>BOND
     1    14    15    1
     2    15    16    2
     3    16    17    1
     4    17    18    2
     5    18    19    1
     6    19    12    1
     7    12     1    1
     8     1     2    1
     9     2     3    2
    10     3    24    1
    11    26    24    1
    12    26    27    1
    13    27    28    1
    14    28    29    1
    15    29    30    1
    16    30    31    1
    17    31    32    1
    18     3     4    1
    19     4     5    1
    20     5     6    2
    21     6     7    1
    22     7     8    2
    23     8     9    1
    24     9    10    2
    25     9    11    1
    26    19    20    1
    27    20    21    2
    28    21    22    1
    29    22    23    2
    30    23    15    1
    31    23    18    1
    32    11     1    2
    33    31    26    1
    34    11     5    1
    35    12    13    1
    36    24    25    1
    37    32    33    1
    38    32    34    1
@<TRIPOS>MOLECULE
*****
 34 38 0 0 0
SMALL
GASTEIGER

@<TRIPOS>ATOM
      1 C         140.7413  139.4430  161.0316 C.2     1  UNL1        0.3308
      2 N         139.7249  140.4921  161.3725 N.2     1  UNL1       -0.0045
      3 C         139.4620  141.6196  160.4188 C.2     1  UNL1        0.3072
      4 C         140.2154  141.6980  159.1241 C.3     1  UNL1        0.1631
      5 C         141.2318  140.6488  158.7831 C.2     1  UNL1        0.0844
      6 N         141.9852  140.7272  157.4885 N.2     1  UNL1       -0.2296
      7 C         143.0016  139.6781  157.1476 C.2     1  UNL1        0.1880
      8 N         143.2646  138.5506  158.1013 N.am    1  UNL1       -0.1535
      9 C         142.5111  138.4722  159.3960 C.2     1  UNL1        0.2788
     10 O         142.7741  137.3447  160.3497 O.2     1  UNL1       -0.2677
     11 C         141.4948  139.5213  159.7369 C.2     1  UNL1        0.1515
     12 N         141.0042  138.3155  161.9853 N.pl3   1  UNL1       -0.2134
     13 H         140.9242  137.3832  161.6794 H       1  UNL1        0.2928
     14 C         139.3875  139.9214  168.0507 C.3     1  UNL1        0.0327
     15 C         139.4667  139.5695  166.5947 C.2     1  UNL1       -0.0015
     16 C         138.3082  139.4718  165.6469 C.2     1  UNL1        0.0944
     17 N         138.8439  139.0954  164.2973 N.2     1  UNL1       -0.2442
     18 C         140.3335  138.9604  164.4110 C.2     1  UNL1        0.1052
     19 C         141.3891  138.6085  163.4051 C.3     1  UNL1        0.2198
     20 C         142.8297  138.5497  163.8192 C.2     1  UNL1        0.0258
     21 C         143.2146  138.8427  165.2390 C.2     1  UNL1       -0.0002
     22 C         142.1590  139.1945  166.2449 C.2     1  UNL1        0.0009
     23 C         140.7184  139.2534  165.8309 C.2     1  UNL1        0.0153
     24 N         138.4455  142.6688  160.7597 N.pl3   1  UNL1       -0.2243
     25 H         137.8107  142.9802  160.0747 H       1  UNL1        0.2918
     26 C         138.3963  143.2434  162.1444 C.3     1  UNL1        0.1704
     27 C         139.1441  144.5049  162.4600 C.3     1  UNL1        0.0478
     28 C         139.0948  145.0795  163.8446 C.3     1  UNL1        0.0042
     29 C         138.2978  144.3926  164.9138 C.3     1  UNL1        0.0016
     30 C         137.5500  143.1312  164.5982 C.3     1  UNL1        0.0196
     31 C         137.5993  142.5566  163.2135 C.3     1  UNL1        0.0939
     32 N         136.8515  141.2951  162.8979 N.3     1  UNL1       -0.3190
     33 H         136.3688  140.9677  163.7347 H       1  UNL1        0.1189
     34 H         137.5077  140.5808  162.5825 H       1  UNL1        0.1189
@<TRIPOS>BOND
     1    14    15    1
     2    15    16    2
     3    16    17    1
     4    17    18    2
     5    18    19    1
     6    19    12    1
     7    12     1    1
     8     1     2    1
     9     2     3    2
    10     3    24    1
    11    26    24    1
    12    26    27    1
    13    27    28    1
    14    28    29    1
    15    29    30    1
    16    30    31    1
    17    31    32    1
    18     3     4    1
    19     4     5    1
    20     5     6    2
    21     6     7    1
    22     7     8    2
    23     8     9    1
    24     9    10    2
    25     9    11    1
    26    19    20    1
    27    20    21    2
    28    21    22    1
    29    22    23    2
    30    23    15    1
    31    23    18    1
    32    11     1    2
    33    31    26    1
    34    11     5    1
    35    12    13    1
    36    24    25    1
    37    32    33    1
    38    32    34    1
@<TRIPOS>MOLECULE
*****
 34 38 0 0 0
SMALL
GASTEIGER

@<TRIPOS>ATOM
      1 C         140.6874  140.8427  166.8914 C.2     1  UNL1        0.3308
      2 N         141.7542  141.5678  166.1259 N.2     1  UNL1       -0.0045
      3 C         142.8674  142.2557  166.8591 C.2     1  UNL1        0.3072
      4 C         142.9137  142.2186  168.3579 C.3     1  UNL1        0.1631
      5 C         141.8468  141.4934  169.1235 C.2     1  UNL1        0.0844
      6 N         141.8932  141.4563  170.6223 N.2     1  UNL1       -0.2296
      7 C         140.8264  140.7312  171.3879 C.2     1  UNL1        0.1880
      8 N         139.7132  140.0433  170.6546 N.am    1  UNL1       -0.1535
      9 C         139.6669  140.0804  169.1558 C.2     1  UNL1        0.2788
     10 O         138.5537  139.3925  168.4226 O.2     1  UNL1       -0.2677
     11 C         140.7337  140.8055  168.3903 C.2     1  UNL1        0.1515
     12 N         139.5742  140.1548  166.1582 N.pl3   1  UNL1       -0.2134
     13 H         139.2588  139.2718  166.4584 H       1  UNL1        0.2928
     14 C         137.2228  139.8410  160.1288 C.3     1  UNL1        0.0327
     15 C         137.8205  139.6207  161.4868 C.2     1  UNL1       -0.0015
     16 C         138.3399  138.3187  162.0208 C.2     1  UNL1        0.0944
     17 N         138.8441  138.5570  163.4133 N.2     1  UNL1       -0.2442
     18 C         138.6364  140.0062  163.7398 C.2     1  UNL1        0.1052
     19 C         138.9416  140.8122  164.9675 C.3     1  UNL1        0.2198
     20 C         138.6142  142.2756  165.0046 C.2     1  UNL1        0.0258
     21 C         137.9816  142.9329  163.8139 C.2     1  UNL1       -0.0002
     22 C         137.6764  142.1269  162.5862 C.2     1  UNL1        0.0009
     23 C         138.0038  140.6636  162.5492 C.2     1  UNL1        0.0153
     24 N         143.9342  142.9808  166.0935 N.pl3   1  UNL1       -0.2243
     25 H         144.4288  143.7190  166.5174 H       1  UNL1        0.2918
     26 C         144.2474  142.5813  164.6820 C.3     1  UNL1        0.1704
     27 C         144.6689  141.1745  164.3768 C.3     1  UNL1        0.0478
     28 C         144.9821  140.7749  162.9653 C.3     1  UNL1        0.0042
     29 C         144.8737  141.7822  161.8590 C.3     1  UNL1        0.0016
     30 C         144.4522  143.1890  162.1643 C.3     1  UNL1        0.0196
     31 C         144.1390  143.5885  163.5759 C.3     1  UNL1        0.0939
     32 N         143.7174  144.9953  163.8812 N.3     1  UNL1       -0.3190
     33 H         143.6976  145.5392  163.0184 H       1  UNL1        0.1189
     34 H         144.3805  145.4152  164.5326 H       1  UNL1        0.1189
@<TRIPOS>BOND
     1    14    15    1
     2    15    16    2
     3    16    17    1
     4    17    18    2
     5    18    19    1
     6    19    12    1
     7    12     1    1
     8     1     2    1
     9     2     3    2
    10     3    24    1
    11    26    24    1
    12    26    27    1
    13    27    28    1
    14    28    29    1
    15    29    30    1
    16    30    31    1
    17    31    32    1
    18     3     4    1
    19     4     5    1
    20     5     6    2
    21     6     7    1
    22     7     8    2
    23     8     9    1
    24     9    10    2
    25     9    11    1
    26    19    20    1
    27    20    21    2
    28    21    22    1
    29    22    23    2
    30    23    15    1
    31    23    18    1
    32    11     1    2
    33    31    26    1
    34    11     5    1
    35    12    13    1
    36    24    25    1
    37    32    33    1
    38    32    34    1
@<TRIPOS>MOLECULE
*****
 34 38 0 0 0
SMALL
GASTEIGER

@<TRIPOS>ATOM
      1 C         141.6561  141.0854  159.7538 C.2     1  UNL1        0.3308
      2 N         140.6883  142.0635  160.3509 N.2     1  UNL1       -0.0045
      3 C         139.2184  141.9191  160.0890 C.2     1  UNL1        0.3072
      4 C         138.7163  140.7967  159.2300 C.3     1  UNL1        0.1631
      5 C         139.6842  139.8185  158.6329 C.2     1  UNL1        0.0844
      6 N         139.1821  138.6960  157.7739 N.2     1  UNL1       -0.2296
      7 C         140.1499  137.7179  157.1767 C.2     1  UNL1        0.1880
      8 N         141.6198  137.8623  157.4386 N.am    1  UNL1       -0.1535
      9 C         142.1219  138.9847  158.2976 C.2     1  UNL1        0.2788
     10 O         143.5918  139.1291  158.5595 O.2     1  UNL1       -0.2677
     11 C         141.1541  139.9628  158.8947 C.2     1  UNL1        0.1515
     12 N         143.1260  141.2298  160.0156 N.pl3   1  UNL1       -0.2134
     13 H         143.7462  141.3872  159.2674 H       1  UNL1        0.2928
     14 C         144.7582  144.0228  165.6295 C.3     1  UNL1        0.0327
     15 C         144.3086  143.6555  164.2465 C.2     1  UNL1       -0.0015
     16 C         143.7893  144.6043  163.2071 C.2     1  UNL1        0.0944
     17 N         143.4591  143.8101  161.9782 N.2     1  UNL1       -0.2442
     18 C         143.7743  142.3705  162.2580 C.2     1  UNL1        0.1052
     19 C         143.6510  141.1343  161.4175 C.3     1  UNL1        0.2198
     20 C         144.0528  139.8025  161.9788 C.2     1  UNL1        0.0258
     21 C         144.5778  139.7070  163.3807 C.2     1  UNL1       -0.0002
     22 C         144.7010  140.9433  164.2212 C.2     1  UNL1        0.0009
     23 C         144.2993  142.2750  163.6600 C.2     1  UNL1        0.0153
     24 N         138.2506  142.8973  160.6862 N.pl3   1  UNL1       -0.2243
     25 H         137.5291  143.2757  160.1335 H       1  UNL1        0.2918
     26 C         138.3821  143.2989  162.1254 C.3     1  UNL1        0.1704
     27 C         139.2130  144.4907  162.4986 C.3     1  UNL1        0.0478
     28 C         139.3445  144.8923  163.9378 C.3     1  UNL1        0.0042
     29 C         138.6451  144.1021  165.0039 C.3     1  UNL1        0.0016
     30 C         137.8142  142.9103  164.6308 C.3     1  UNL1        0.0196
     31 C         137.6827  142.5088  163.1915 C.3     1  UNL1        0.0939
     32 N         136.8519  141.3170  162.8183 N.3     1  UNL1       -0.3190
     33 H         136.4533  140.9030  163.6610 H       1  UNL1        0.1189
     34 H         137.4377  140.6286  162.3456 H       1  UNL1        0.1189
@<TRIPOS>BOND
     1    14    15    1
     2    15    16    2
     3    16    17    1
     4    17    18    2
     5    18    19    1
     6    19    12    1
     7    12     1    1
     8     1     2    1
     9     2     3    2
    10     3    24    1
    11    26    24    1
    12    26    27    1
    13    27    28    1
    14    28    29    1
    15    29    30    1
    16    30    31    1
    17    31    32    1
    18     3     4    1
    19     4     5    1
    20     5     6    2
    21     6     7    1
    22     7     8    2
    23     8     9    1
    24     9    10    2
    25     9    11    1
    26    19    20    1
    27    20    21    2
    28    21    22    1
    29    22    23    2
    30    23    15    1
    31    23    18    1
    32    11     1    2
    33    31    26    1
    34    11     5    1
    35    12    13    1
    36    24    25    1
    37    32    33    1
    38    32    34    1
@<TRIPOS>MOLECULE
*****
 34 38 0 0 0
SMALL
GASTEIGER

@<TRIPOS>ATOM
      1 C         140.3173  141.4341  159.6088 C.2     1  UNL1        0.3308
      2 N         141.5054  142.2028  160.1062 N.2     1  UNL1       -0.0045
      3 C         142.8905  141.7737  159.7224 C.2     1  UNL1        0.3072
      4 C         143.0875  140.5760  158.8412 C.3     1  UNL1        0.1631
      5 C         141.8993  139.8072  158.3438 C.2     1  UNL1        0.0844
      6 N         142.0963  138.6095  157.4626 N.2     1  UNL1       -0.2296
      7 C         140.9081  137.8408  156.9653 C.2     1  UNL1        0.1880
      8 N         139.5230  138.2699  157.3491 N.am    1  UNL1       -0.1535
      9 C         139.3260  139.4676  158.2303 C.2     1  UNL1        0.2788
     10 O         137.9409  139.8967  158.6141 O.2     1  UNL1       -0.2677
     11 C         140.5142  140.2363  158.7276 C.2     1  UNL1        0.1515
     12 N         138.9321  141.8632  159.9927 N.pl3   1  UNL1       -0.2134
     13 H         138.2834  142.1134  159.2956 H       1  UNL1        0.2928
     14 C         138.4995  145.0458  165.6198 C.3     1  UNL1        0.0327
     15 C         138.7228  144.5638  164.2171 C.2     1  UNL1       -0.0015
     16 C         139.3366  145.3550  163.1002 C.2     1  UNL1        0.0944
     17 N         139.3648  144.4862  161.8777 N.2     1  UNL1       -0.2442
     18 C         138.7684  143.1581  162.2391 C.2     1  UNL1        0.1052
     19 C         138.5354  141.9113  161.4384 C.3     1  UNL1        0.2198
     20 C         137.9057  140.7124  162.0836 C.2     1  UNL1        0.0258
     21 C         137.5090  140.7604  163.5294 C.2     1  UNL1       -0.0002
     22 C         137.7420  142.0073  164.3300 C.2     1  UNL1        0.0009
     23 C         138.3717  143.2061  163.6849 C.2     1  UNL1        0.0153
     24 N         144.0787  142.5425  160.2198 N.pl3   1  UNL1       -0.2243
     25 H         144.7186  142.9286  159.5790 H       1  UNL1        0.2918
     26 C         144.2919  142.7229  161.6935 C.3     1  UNL1        0.1704
     27 C         145.2025  141.7928  162.4391 C.3     1  UNL1        0.0478
     28 C         145.4156  141.9732  163.9128 C.3     1  UNL1        0.0042
     29 C         144.7182  143.0837  164.6411 C.3     1  UNL1        0.0016
     30 C         143.8076  144.0138  163.8956 C.3     1  UNL1        0.0196
     31 C         143.5945  143.8333  162.4218 C.3     1  UNL1        0.0939
     32 N         142.6839  144.7634  161.6763 N.3     1  UNL1       -0.3190
     33 H         142.2982  145.4521  162.3224 H       1  UNL1        0.1189
     34 H         141.9237  144.2297  161.2547 H       1  UNL1        0.1189
@<TRIPOS>BOND
     1    14    15    1
     2    15    16    2
     3    16    17    1
     4    17    18    2
     5    18    19    1
     6    19    12    1
     7    12     1    1
     8     1     2    1
     9     2     3    2
    10     3    24    1
    11    26    24    1
    12    26    27    1
    13    27    28    1
    14    28    29    1
    15    29    30    1
    16    30    31    1
    17    31    32    1
    18     3     4    1
    19     4     5    1
    20     5     6    2
    21     6     7    1
    22     7     8    2
    23     8     9    1
    24     9    10    2
    25     9    11    1
    26    19    20    1
    27    20    21    2
    28    21    22    1
    29    22    23    2
    30    23    15    1
    31    23    18    1
    32    11     1    2
    33    31    26    1
    34    11     5    1
    35    12    13    1
    36    24    25    1
    37    32    33    1
    38    32    34    1
@<TRIPOS>MOLECULE
*****
 34 38 0 0 0
SMALL
GASTEIGER

@<TRIPOS>ATOM
      1 C         140.3080  141.4377  159.8308 C.2     1  UNL1        0.3308
      2 N         141.4860  142.2336  160.3091 N.2     1  UNL1       -0.0045
      3 C         142.8755  141.8257  159.9178 C.2     1  UNL1        0.3072
      4 C         143.0869  140.6220  159.0481 C.3     1  UNL1        0.1631
      5 C         141.9088  139.8261  158.5697 C.2     1  UNL1        0.0844
      6 N         142.1202  138.6224  157.7001 N.2     1  UNL1       -0.2296
      7 C         140.9422  137.8266  157.2217 C.2     1  UNL1        0.1880
      8 N         139.5528  138.2344  157.6131 N.am    1  UNL1       -0.1535
      9 C         139.3414  139.4381  158.4827 C.2     1  UNL1        0.2788
     10 O         137.9519  139.8460  158.8741 O.2     1  UNL1       -0.2677
     11 C         140.5194  140.2340  158.9611 C.2     1  UNL1        0.1515
     12 N         138.9186  141.8456  160.2221 N.pl3   1  UNL1       -0.2134
     13 H         138.2410  142.0138  159.5280 H       1  UNL1        0.2928
     14 C         138.0792  139.2984  166.1203 C.3     1  UNL1        0.0327
     15 C         138.3457  139.6073  164.6769 C.2     1  UNL1       -0.0015
     16 C         138.7738  138.6231  163.6290 C.2     1  UNL1        0.0944
     17 N         138.9235  139.3622  162.3324 N.2     1  UNL1       -0.2442
     18 C         138.5880  140.8032  162.5788 C.2     1  UNL1        0.1052
     19 C         138.5615  141.9971  161.6711 C.3     1  UNL1        0.2198
     20 C         138.1778  143.3424  162.2123 C.2     1  UNL1        0.0258
     21 C         137.8207  143.4939  163.6612 C.2     1  UNL1       -0.0002
     22 C         137.8472  142.3001  164.5690 C.2     1  UNL1        0.0009
     23 C         138.2308  140.9548  164.0279 C.2     1  UNL1        0.0153
     24 N         144.0535  142.6217  160.3961 N.pl3   1  UNL1       -0.2243
     25 H         144.6667  143.0331  159.7450 H       1  UNL1        0.2918
     26 C         144.2972  142.7907  161.8665 C.3     1  UNL1        0.1704
     27 C         145.1894  141.8293  162.5943 C.3     1  UNL1        0.0478
     28 C         145.4331  141.9984  164.0646 C.3     1  UNL1        0.0042
     29 C         144.7846  143.1289  164.8073 C.3     1  UNL1        0.0016
     30 C         143.8924  144.0903  164.0795 C.3     1  UNL1        0.0196
     31 C         143.6487  143.9212  162.6090 C.3     1  UNL1        0.0939
     32 N         142.7565  144.8826  161.8812 N.3     1  UNL1       -0.3190
     33 H         142.4044  145.5816  162.5354 H       1  UNL1        0.1189
     34 H         141.9724  144.3751  161.4713 H       1  UNL1        0.1189
@<TRIPOS>BOND
     1    14    15    1
     2    15    16    2
     3    16    17    1
     4    17    18    2
     5    18    19    1
     6    19    12    1
     7    12     1    1
     8     1     2    1
     9     2     3    2
    10     3    24    1
    11    26    24    1
    12    26    27    1
    13    27    28    1
    14    28    29    1
    15    29    30    1
    16    30    31    1
    17    31    32    1
    18     3     4    1
    19     4     5    1
    20     5     6    2
    21     6     7    1
    22     7     8    2
    23     8     9    1
    24     9    10    2
    25     9    11    1
    26    19    20    1
    27    20    21    2
    28    21    22    1
    29    22    23    2
    30    23    15    1
    31    23    18    1
    32    11     1    2
    33    31    26    1
    34    11     5    1
    35    12    13    1
    36    24    25    1
    37    32    33    1
    38    32    34    1
@<TRIPOS>MOLECULE
*****
 34 38 0 0 0
SMALL
GASTEIGER

@<TRIPOS>ATOM
      1 C         140.7341  141.8198  166.9769 C.2     1  UNL1        0.3308
      2 N         141.0665  140.7512  165.9781 N.2     1  UNL1       -0.0045
      3 C         141.8150  139.5258  166.4119 C.2     1  UNL1        0.3072
      4 C         142.2311  139.3690  167.8445 C.3     1  UNL1        0.1631
      5 C         141.8987  140.4376  168.8433 C.2     1  UNL1        0.0844
      6 N         142.3147  140.2808  170.2759 N.2     1  UNL1       -0.2296
      7 C         141.9823  141.3494  171.2746 C.2     1  UNL1        0.1880
      8 N         141.2339  142.5748  170.8409 N.am    1  UNL1       -0.1535
      9 C         140.8178  142.7316  169.4083 C.2     1  UNL1        0.2788
     10 O         140.0693  143.9570  168.9745 O.2     1  UNL1       -0.2677
     11 C         141.1502  141.6630  168.4095 C.2     1  UNL1        0.1515
     12 N         139.9856  143.0452  166.5431 N.pl3   1  UNL1       -0.2134
     13 H         139.7878  143.7572  167.1936 H       1  UNL1        0.2928
     14 C         141.0768  144.9705  160.4535 C.3     1  UNL1        0.0327
     15 C         141.0991  144.6338  161.9150 C.2     1  UNL1       -0.0015
     16 C         142.2272  144.9061  162.8655 C.2     1  UNL1        0.0944
     17 N         141.8224  144.4062  164.2206 N.2     1  UNL1       -0.2442
     18 C         140.4443  143.8250  164.1077 C.2     1  UNL1        0.1052
     19 C         139.5386  143.1858  165.1182 C.3     1  UNL1        0.2198
     20 C         138.1859  142.6873  164.7039 C.2     1  UNL1        0.0258
     21 C         137.7388  142.8279  163.2790 C.2     1  UNL1       -0.0002
     22 C         138.6445  143.4671  162.2684 C.2     1  UNL1        0.0009
     23 C         139.9972  143.9656  162.6827 C.2     1  UNL1        0.0153
     24 N         142.1474  138.4572  165.4131 N.pl3   1  UNL1       -0.2243
     25 H         141.9228  137.5179  165.6040 H       1  UNL1        0.2918
     26 C         142.8219  138.8198  164.1233 C.3     1  UNL1        0.1704
     27 C         143.8708  139.8919  164.1010 C.3     1  UNL1        0.0478
     28 C         144.5453  140.2545  162.8112 C.3     1  UNL1        0.0042
     29 C         144.1710  139.5449  161.5437 C.3     1  UNL1        0.0016
     30 C         143.1221  138.4728  161.5660 C.3     1  UNL1        0.0196
     31 C         142.4476  138.1103  162.8559 C.3     1  UNL1        0.0939
     32 N         141.3988  137.0382  162.8782 N.3     1  UNL1       -0.3190
     33 H         141.2721  136.6667  161.9367 H       1  UNL1        0.1189
     34 H         140.5179  137.4311  163.2100 H       1  UNL1        0.1189
@<TRIPOS>BOND
     1    14    15    1
     2    15    16    2
     3    16    17    1
     4    17    18    2
     5    18    19    1
     6    19    12    1
     7    12     1    1
     8     1     2    1
     9     2     3    2
    10     3    24    1
    11    26    24    1
    12    26    27    1
    13    27    28    1
    14    28    29    1
    15    29    30    1
    16    30    31    1
    17    31    32    1
    18     3     4    1
    19     4     5    1
    20     5     6    2
    21     6     7    1
    22     7     8    2
    23     8     9    1
    24     9    10    2
    25     9    11    1
    26    19    20    1
    27    20    21    2
    28    21    22    1
    29    22    23    2
    30    23    15    1
    31    23    18    1
    32    11     1    2
    33    31    26    1
    34    11     5    1
    35    12    13    1
    36    24    25    1
    37    32    33    1
    38    32    34    1
@<TRIPOS>MOLECULE
*****
 34 38 0 0 0
SMALL
GASTEIGER

@<TRIPOS>ATOM
      1 C         139.9716  143.5019  161.1515 C.2     1  UNL1        0.3308
      2 N         139.1322  142.4826  161.8630 N.2     1  UNL1       -0.0045
      3 C         138.2636  141.5457  161.0771 C.2     1  UNL1        0.3072
      4 C         138.2344  141.6280  159.5796 C.3     1  UNL1        0.1631
      5 C         139.0739  142.6474  158.8681 C.2     1  UNL1        0.0844
      6 N         139.0447  142.7298  157.3706 N.2     1  UNL1       -0.2296
      7 C         139.8841  143.7492  156.6592 C.2     1  UNL1        0.1880
      8 N         140.7527  144.6861  157.4451 N.am    1  UNL1       -0.1535
      9 C         140.7819  144.6037  158.9425 C.2     1  UNL1        0.2788
     10 O         141.6505  145.5407  159.7284 O.2     1  UNL1       -0.2677
     11 C         139.9425  143.5844  159.6540 C.2     1  UNL1        0.1515
     12 N         140.8402  144.4389  161.9374 N.pl3   1  UNL1       -0.2134
     13 H         140.6963  145.4110  161.8770 H       1  UNL1        0.2928
     14 C         142.8057  141.8998  167.5651 C.3     1  UNL1        0.0327
     15 C         142.0800  142.4889  166.3920 C.2     1  UNL1       -0.0015
     16 C         140.6126  142.7927  166.3250 C.2     1  UNL1        0.0944
     17 N         140.3199  143.3693  164.9715 N.2     1  UNL1       -0.2442
     18 C         141.6064  143.4218  164.2020 C.2     1  UNL1        0.1052
     19 C         141.9279  143.8948  162.8153 C.3     1  UNL1        0.2198
     20 C         143.3373  143.8237  162.3065 C.2     1  UNL1        0.0258
     21 C         144.4250  143.2796  163.1844 C.2     1  UNL1       -0.0002
     22 C         144.1035  142.8067  164.5711 C.2     1  UNL1        0.0009
     23 C         142.6943  142.8777  165.0799 C.2     1  UNL1        0.0153
     24 N         137.4241  140.5263  161.7886 N.pl3   1  UNL1       -0.2243
     25 H         136.5039  140.3492  161.4870 H       1  UNL1        0.2918
     26 C         137.9869  139.7767  162.9597 C.3     1  UNL1        0.1704
     27 C         138.5077  138.3819  162.7773 C.3     1  UNL1        0.0478
     28 C         139.0704  137.6323  163.9483 C.3     1  UNL1        0.0042
     29 C         139.1123  138.2775  165.3019 C.3     1  UNL1        0.0016
     30 C         138.5915  139.6723  165.4843 C.3     1  UNL1        0.0196
     31 C         138.0288  140.4219  164.3131 C.3     1  UNL1        0.0939
     32 N         137.5079  141.8167  164.4955 N.3     1  UNL1       -0.3190
     33 H         137.6137  142.0942  165.4714 H       1  UNL1        0.1189
     34 H         136.5214  141.8476  164.2383 H       1  UNL1        0.1189
@<TRIPOS>BOND
     1    14    15    1
     2    15    16    2
     3    16    17    1
     4    17    18    2
     5    18    19    1
     6    19    12    1
     7    12     1    1
     8     1     2    1
     9     2     3    2
    10     3    24    1
    11    26    24    1
    12    26    27    1
    13    27    28    1
    14    28    29    1
    15    29    30    1
    16    30    31    1
    17    31    32    1
    18     3     4    1
    19     4     5    1
    20     5     6    2
    21     6     7    1
    22     7     8    2
    23     8     9    1
    24     9    10    2
    25     9    11    1
    26    19    20    1
    27    20    21    2
    28    21    22    1
    29    22    23    2
    30    23    15    1
    31    23    18    1
    32    11     1    2
    33    31    26    1
    34    11     5    1
    35    12    13    1
    36    24    25    1
    37    32    33    1
    38    32    34    1
