@<TRIPOS>MOLECULE
*****
 24 26 0 0 0
SMALL
GASTEIGER

@<TRIPOS>ATOM
      1 C         141.6282  143.1178  164.5310 C.ar    1  UNL1       -0.0060
      2 C         141.3753  143.8022  163.2204 C.ar    1  UNL1        0.0719
      3 C         142.4378  143.8111  162.1617 C.ar    1  UNL1        0.2897
      4 N         143.7533  143.1356  162.4135 N.ar    1  UNL1       -0.1589
      5 C         144.8158  143.1445  161.3546 C.3     1  UNL1        0.4081
      6 C         144.0062  142.4512  163.7240 C.ar    1  UNL1        0.2475
      7 C         142.9437  142.4423  164.7829 C.ar    1  UNL1        0.0646
      8 C         140.5657  143.1089  165.5898 C.3     1  UNL1        0.0530
      9 C         137.6669  138.0186  166.8882 C.3     1  UNL1        0.0310
     10 C         138.3916  139.2912  166.5636 C.ar    1  UNL1       -0.0219
     11 C         139.3785  139.8618  167.5384 C.ar    1  UNL1       -0.0046
     12 C         140.1033  141.1344  167.2138 C.ar    1  UNL1       -0.0043
     13 C         139.8410  141.8363  165.9144 C.ar    1  UNL1       -0.0178
     14 C         138.8541  141.2657  164.9396 C.ar    1  UNL1       -0.0043
     15 C         138.1294  139.9931  165.2642 C.ar    1  UNL1       -0.0046
     16 C         145.3216  141.7757  163.9758 C.3     1  UNL1        0.3010
     17 O         145.4169  140.2794  163.9315 O.3     1  UNL1       -0.4642
     18 C         144.1809  139.4442  164.0881 C.ar    1  UNL1        0.1393
     19 C         143.5021  138.8747  162.8777 C.ar    1  UNL1        0.0366
     20 C         142.2661  138.0394  163.0343 C.ar    1  UNL1       -0.0011
     21 C         141.7087  137.7737  164.4014 C.ar    1  UNL1       -0.0217
     22 C         140.4726  136.9385  164.5580 C.3     1  UNL1        0.0310
     23 C         142.3874  138.3432  165.6117 C.ar    1  UNL1       -0.0011
     24 C         143.6235  139.1784  165.4551 C.ar    1  UNL1        0.0366
@<TRIPOS>UNITY_ATOM_ATTR
4 1
charge 1
@<TRIPOS>BOND
     1     9    10    1
     2    10    11   ar
     3    11    12   ar
     4    12    13   ar
     5    13     8    1
     6     8     1    1
     7     1     2   ar
     8     2     3   ar
     9     3     4   ar
    10     4     5    1
    11     4     6   ar
    12     6    16    1
    13    16    17    1
    14    17    18    1
    15    18    19   ar
    16    19    20   ar
    17    20    21   ar
    18    21    22    1
    19    21    23   ar
    20    23    24   ar
    21     6     7   ar
    22    13    14   ar
    23    14    15   ar
    24    15    10   ar
    25     7     1   ar
    26    24    18   ar
@<TRIPOS>MOLECULE
*****
 24 26 0 0 0
SMALL
GASTEIGER

@<TRIPOS>ATOM
      1 C         138.5055  139.1106  165.8091 C.ar    1  UNL1       -0.0060
      2 C         138.8899  137.8951  165.0186 C.ar    1  UNL1        0.0719
      3 C         138.7883  137.9106  163.5222 C.ar    1  UNL1        0.2897
      4 N         138.3026  139.1416  162.8161 N.ar    1  UNL1       -0.1589
      5 C         138.2011  139.1571  161.3196 C.3     1  UNL1        0.4081
      6 C         137.9183  140.3572  163.6065 C.ar    1  UNL1        0.2475
      7 C         138.0198  140.3417  165.1030 C.ar    1  UNL1        0.0646
      8 C         138.6070  139.0951  167.3055 C.3     1  UNL1        0.0530
      9 C         142.1245  143.0616  170.1152 C.3     1  UNL1        0.0310
     10 C         141.2452  142.0700  169.4128 C.ar    1  UNL1       -0.0219
     11 C         141.5528  141.6616  168.0026 C.ar    1  UNL1       -0.0046
     12 C         140.6734  140.6700  167.3002 C.ar    1  UNL1       -0.0043
     13 C         139.4864  140.0868  168.0079 C.ar    1  UNL1       -0.0178
     14 C         139.1788  140.4951  169.4181 C.ar    1  UNL1       -0.0043
     15 C         140.0582  141.4868  170.1205 C.ar    1  UNL1       -0.0046
     16 C         137.4325  141.5882  162.9004 C.3     1  UNL1        0.3010
     17 O         137.6337  142.9383  163.5225 O.3     1  UNL1       -0.4642
     18 C         139.0090  143.5327  163.5959 C.ar    1  UNL1        0.1393
     19 C         139.9435  143.1273  164.6970 C.ar    1  UNL1        0.0366
     20 C         141.3187  143.7218  164.7704 C.ar    1  UNL1       -0.0011
     21 C         141.7594  144.7216  163.7427 C.ar    1  UNL1       -0.0217
     22 C         143.1346  145.3161  163.8161 C.3     1  UNL1        0.0310
     23 C         140.8249  145.1269  162.6416 C.ar    1  UNL1       -0.0011
     24 C         139.4497  144.5325  162.5682 C.ar    1  UNL1        0.0366
@<TRIPOS>UNITY_ATOM_ATTR
4 1
charge 1
@<TRIPOS>BOND
     1     9    10    1
     2    10    11   ar
     3    11    12   ar
     4    12    13   ar
     5    13     8    1
     6     8     1    1
     7     1     2   ar
     8     2     3   ar
     9     3     4   ar
    10     4     5    1
    11     4     6   ar
    12     6    16    1
    13    16    17    1
    14    17    18    1
    15    18    19   ar
    16    19    20   ar
    17    20    21   ar
    18    21    22    1
    19    21    23   ar
    20    23    24   ar
    21     6     7   ar
    22    13    14   ar
    23    14    15   ar
    24    15    10   ar
    25     7     1   ar
    26    24    18   ar
@<TRIPOS>MOLECULE
*****
 24 26 0 0 0
SMALL
GASTEIGER

@<TRIPOS>ATOM
      1 C         139.4538  140.0512  167.9873 C.ar    1  UNL1       -0.0060
      2 C         139.2494  140.4087  169.4297 C.ar    1  UNL1        0.0719
      3 C         140.2467  141.2790  170.1353 C.ar    1  UNL1        0.2897
      4 N         141.4485  141.7918  169.3986 N.ar    1  UNL1       -0.1589
      5 C         142.4459  142.6621  170.1043 C.3     1  UNL1        0.4081
      6 C         141.6529  141.4343  167.9563 C.ar    1  UNL1        0.2475
      7 C         140.6556  140.5640  167.2506 C.ar    1  UNL1        0.0646
      8 C         138.4565  139.1809  167.2817 C.3     1  UNL1        0.0530
      9 C         138.6635  138.6129  161.3123 C.3     1  UNL1        0.0310
     10 C         138.6117  138.7549  162.8046 C.ar    1  UNL1       -0.0219
     11 C         138.1347  140.0370  163.4199 C.ar    1  UNL1       -0.0046
     12 C         138.0830  140.1790  164.9123 C.ar    1  UNL1       -0.0043
     13 C         138.5082  139.0389  165.7894 C.ar    1  UNL1       -0.0178
     14 C         138.9853  137.7568  165.1741 C.ar    1  UNL1       -0.0043
     15 C         139.0370  137.6148  163.6817 C.ar    1  UNL1       -0.0046
     16 C         142.8547  141.9471  167.2195 C.3     1  UNL1        0.3010
     17 O         142.7566  142.2714  165.7582 O.3     1  UNL1       -0.4642
     18 C         143.0219  141.2076  164.7345 C.ar    1  UNL1        0.1393
     19 C         144.4082  140.6608  164.5631 C.ar    1  UNL1        0.0366
     20 C         144.6735  139.5970  163.5393 C.ar    1  UNL1       -0.0011
     21 C         143.5525  139.0801  162.6871 C.ar    1  UNL1       -0.0217
     22 C         143.8178  138.0163  161.6634 C.3     1  UNL1        0.0310
     23 C         142.1664  139.6269  162.8586 C.ar    1  UNL1       -0.0011
     24 C         141.9011  140.6907  163.8823 C.ar    1  UNL1        0.0366
@<TRIPOS>UNITY_ATOM_ATTR
4 1
charge 1
@<TRIPOS>BOND
     1     9    10    1
     2    10    11   ar
     3    11    12   ar
     4    12    13   ar
     5    13     8    1
     6     8     1    1
     7     1     2   ar
     8     2     3   ar
     9     3     4   ar
    10     4     5    1
    11     4     6   ar
    12     6    16    1
    13    16    17    1
    14    17    18    1
    15    18    19   ar
    16    19    20   ar
    17    20    21   ar
    18    21    22    1
    19    21    23   ar
    20    23    24   ar
    21     6     7   ar
    22    13    14   ar
    23    14    15   ar
    24    15    10   ar
    25     7     1   ar
    26    24    18   ar
@<TRIPOS>MOLECULE
*****
 24 26 0 0 0
SMALL
GASTEIGER

@<TRIPOS>ATOM
      1 C         143.6527  139.0750  164.8834 C.ar    1  UNL1       -0.0060
      2 C         144.6607  140.0386  164.3306 C.ar    1  UNL1        0.0719
      3 C         144.6611  140.3659  162.8668 C.ar    1  UNL1        0.2897
      4 N         143.6536  139.7297  161.9557 N.ar    1  UNL1       -0.1589
      5 C         143.6540  140.0571  160.4918 C.3     1  UNL1        0.4081
      6 C         142.6456  138.7662  162.5084 C.ar    1  UNL1        0.2475
      7 C         142.6452  138.4388  163.9723 C.ar    1  UNL1        0.0646
      8 C         143.6523  138.7477  166.3472 C.3     1  UNL1        0.0530
      9 C         139.5794  141.2433  169.9782 C.3     1  UNL1        0.0310
     10 C         140.5976  140.6194  169.0704 C.ar    1  UNL1       -0.0219
     11 C         141.6103  139.6620  169.6251 C.ar    1  UNL1       -0.0046
     12 C         142.6286  139.0381  168.7174 C.ar    1  UNL1       -0.0043
     13 C         142.6340  139.3716  167.2549 C.ar    1  UNL1       -0.0178
     14 C         141.6213  140.3290  166.7003 C.ar    1  UNL1       -0.0043
     15 C         140.6031  140.9529  167.6080 C.ar    1  UNL1       -0.0046
     16 C         141.6381  138.1299  161.5973 C.3     1  UNL1        0.3010
     17 O         140.1843  138.4755  161.7288 O.3     1  UNL1       -0.4642
     18 C         139.5506  138.5483  163.0864 C.ar    1  UNL1        0.1393
     19 C         138.9760  139.8441  163.5774 C.ar    1  UNL1        0.0366
     20 C         138.3423  139.9169  164.9350 C.ar    1  UNL1       -0.0011
     21 C         138.2832  138.6939  165.8016 C.ar    1  UNL1       -0.0217
     22 C         137.6494  138.7667  167.1592 C.3     1  UNL1        0.0310
     23 C         138.8577  137.3983  165.3106 C.ar    1  UNL1       -0.0011
     24 C         139.4914  137.3255  163.9530 C.ar    1  UNL1        0.0366
@<TRIPOS>UNITY_ATOM_ATTR
4 1
charge 1
@<TRIPOS>BOND
     1     9    10    1
     2    10    11   ar
     3    11    12   ar
     4    12    13   ar
     5    13     8    1
     6     8     1    1
     7     1     2   ar
     8     2     3   ar
     9     3     4   ar
    10     4     5    1
    11     4     6   ar
    12     6    16    1
    13    16    17    1
    14    17    18    1
    15    18    19   ar
    16    19    20   ar
    17    20    21   ar
    18    21    22    1
    19    21    23   ar
    20    23    24   ar
    21     6     7   ar
    22    13    14   ar
    23    14    15   ar
    24    15    10   ar
    25     7     1   ar
    26    24    18   ar
@<TRIPOS>MOLECULE
*****
 24 26 0 0 0
SMALL
GASTEIGER

@<TRIPOS>ATOM
      1 C         142.7293  138.8385  165.8301 C.ar    1  UNL1       -0.0060
      2 C         143.8640  139.1742  164.9082 C.ar    1  UNL1        0.0719
      3 C         143.7227  138.9490  163.4320 C.ar    1  UNL1        0.2897
      4 N         142.4468  138.3881  162.8776 N.ar    1  UNL1       -0.1589
      5 C         142.3056  138.1629  161.4013 C.3     1  UNL1        0.4081
      6 C         141.3121  138.0523  163.7994 C.ar    1  UNL1        0.2475
      7 C         141.4533  138.2775  165.2757 C.ar    1  UNL1        0.0646
      8 C         142.8705  139.0637  167.3064 C.3     1  UNL1        0.0530
      9 C         140.4160  143.9119  169.8499 C.3     1  UNL1        0.0310
     10 C         141.0296  142.6999  169.2140 C.ar    1  UNL1       -0.0219
     11 C         140.1537  141.5842  168.7261 C.ar    1  UNL1       -0.0046
     12 C         140.7673  140.3722  168.0902 C.ar    1  UNL1       -0.0043
     13 C         142.2569  140.2757  167.9422 C.ar    1  UNL1       -0.0178
     14 C         143.1328  141.3914  168.4302 C.ar    1  UNL1       -0.0043
     15 C         142.5191  142.6034  169.0660 C.ar    1  UNL1       -0.0046
     16 C         140.0362  137.4914  163.2450 C.3     1  UNL1        0.3010
     17 O         138.7160  138.0398  163.6993 O.3     1  UNL1       -0.4642
     18 C         138.4437  139.5120  163.6071 C.ar    1  UNL1        0.1393
     19 C         138.4782  140.3599  164.8440 C.ar    1  UNL1        0.0366
     20 C         138.2059  141.8321  164.7519 C.ar    1  UNL1       -0.0011
     21 C         137.8990  142.4563  163.4228 C.ar    1  UNL1       -0.0217
     22 C         137.6267  143.9285  163.3307 C.3     1  UNL1        0.0310
     23 C         137.8645  141.6084  162.1860 C.ar    1  UNL1       -0.0011
     24 C         138.1368  140.1362  162.2782 C.ar    1  UNL1        0.0366
@<TRIPOS>UNITY_ATOM_ATTR
4 1
charge 1
@<TRIPOS>BOND
     1     9    10    1
     2    10    11   ar
     3    11    12   ar
     4    12    13   ar
     5    13     8    1
     6     8     1    1
     7     1     2   ar
     8     2     3   ar
     9     3     4   ar
    10     4     5    1
    11     4     6   ar
    12     6    16    1
    13    16    17    1
    14    17    18    1
    15    18    19   ar
    16    19    20   ar
    17    20    21   ar
    18    21    22    1
    19    21    23   ar
    20    23    24   ar
    21     6     7   ar
    22    13    14   ar
    23    14    15   ar
    24    15    10   ar
    25     7     1   ar
    26    24    18   ar
@<TRIPOS>MOLECULE
*****
 24 26 0 0 0
SMALL
GASTEIGER

@<TRIPOS>ATOM
      1 C         143.4438  141.6687  164.8967 C.ar    1  UNL1       -0.0060
      2 C         144.7859  141.2165  164.4022 C.ar    1  UNL1        0.0719
      3 C         144.9203  140.6296  163.0284 C.ar    1  UNL1        0.2897
      4 N         143.7126  140.4948  162.1490 N.ar    1  UNL1       -0.1589
      5 C         143.8471  139.9079  160.7751 C.3     1  UNL1        0.4081
      6 C         142.3706  140.9470  162.6433 C.ar    1  UNL1        0.2475
      7 C         142.2362  141.5340  164.0172 C.ar    1  UNL1        0.0646
      8 C         143.3094  142.2557  166.2705 C.3     1  UNL1        0.0530
      9 C         138.9255  140.3866  169.9157 C.3     1  UNL1        0.0310
     10 C         140.0215  140.8539  169.0044 C.ar    1  UNL1       -0.0219
     11 C         140.9082  139.8539  168.3236 C.ar    1  UNL1       -0.0046
     12 C         142.0042  140.3211  167.4123 C.ar    1  UNL1       -0.0043
     13 C         142.2134  141.7884  167.1818 C.ar    1  UNL1       -0.0178
     14 C         141.3267  142.7885  167.8626 C.ar    1  UNL1       -0.0043
     15 C         140.2307  142.3212  168.7739 C.ar    1  UNL1       -0.0046
     16 C         141.1630  140.8123  161.7638 C.3     1  UNL1        0.3010
     17 O         140.2666  139.6171  161.8986 O.3     1  UNL1       -0.4642
     18 C         139.6018  139.3224  163.2106 C.ar    1  UNL1        0.1393
     19 C         139.7030  137.9517  163.8114 C.ar    1  UNL1        0.0366
     20 C         139.0383  137.6569  165.1234 C.ar    1  UNL1       -0.0011
     21 C         138.2723  138.7329  165.8345 C.ar    1  UNL1       -0.0217
     22 C         137.6075  138.4381  167.1464 C.3     1  UNL1        0.0310
     23 C         138.1710  140.1035  165.2336 C.ar    1  UNL1       -0.0011
     24 C         138.8358  140.3983  163.9217 C.ar    1  UNL1        0.0366
@<TRIPOS>UNITY_ATOM_ATTR
4 1
charge 1
@<TRIPOS>BOND
     1     9    10    1
     2    10    11   ar
     3    11    12   ar
     4    12    13   ar
     5    13     8    1
     6     8     1    1
     7     1     2   ar
     8     2     3   ar
     9     3     4   ar
    10     4     5    1
    11     4     6   ar
    12     6    16    1
    13    16    17    1
    14    17    18    1
    15    18    19   ar
    16    19    20   ar
    17    20    21   ar
    18    21    22    1
    19    21    23   ar
    20    23    24   ar
    21     6     7   ar
    22    13    14   ar
    23    14    15   ar
    24    15    10   ar
    25     7     1   ar
    26    24    18   ar
@<TRIPOS>MOLECULE
*****
 24 26 0 0 0
SMALL
GASTEIGER

@<TRIPOS>ATOM
      1 C         139.1205  141.6416  164.5596 C.ar    1  UNL1       -0.0060
      2 C         138.3240  141.8503  163.3057 C.ar    1  UNL1        0.0719
      3 C         137.9234  140.6730  162.4671 C.ar    1  UNL1        0.2897
      4 N         138.3191  139.2870  162.8823 N.ar    1  UNL1       -0.1589
      5 C         137.9183  138.1096  162.0435 C.3     1  UNL1        0.4081
      6 C         139.1155  139.0783  164.1361 C.ar    1  UNL1        0.2475
      7 C         139.5162  140.2556  164.9748 C.ar    1  UNL1        0.0646
      8 C         139.5212  142.8189  165.3983 C.3     1  UNL1        0.0530
      9 C         143.7947  142.2175  169.5666 C.3     1  UNL1        0.0310
     10 C         142.7263  142.3678  168.5245 C.ar    1  UNL1       -0.0219
     11 C         141.3011  142.5865  168.9377 C.ar    1  UNL1       -0.0046
     12 C         140.2327  142.7369  167.8956 C.ar    1  UNL1       -0.0043
     13 C         140.5896  142.6685  166.4404 C.ar    1  UNL1       -0.0178
     14 C         142.0148  142.4498  166.0271 C.ar    1  UNL1       -0.0043
     15 C         143.0832  142.2995  167.0692 C.ar    1  UNL1       -0.0046
     16 C         139.5112  137.6922  164.5513 C.3     1  UNL1        0.3010
     17 O         140.8477  137.1420  164.1500 O.3     1  UNL1       -0.4642
     18 C         142.0479  138.0408  164.1115 C.ar    1  UNL1        0.1393
     19 C         142.5392  138.5802  162.8009 C.ar    1  UNL1        0.0366
     20 C         143.7394  139.4791  162.7623 C.ar    1  UNL1       -0.0011
     21 C         144.4484  139.8385  164.0345 C.ar    1  UNL1       -0.0217
     22 C         145.6487  140.7374  163.9960 C.3     1  UNL1        0.0310
     23 C         143.9572  139.2991  165.3450 C.ar    1  UNL1       -0.0011
     24 C         142.7569  138.4002  165.3836 C.ar    1  UNL1        0.0366
@<TRIPOS>UNITY_ATOM_ATTR
4 1
charge 1
@<TRIPOS>BOND
     1     9    10    1
     2    10    11   ar
     3    11    12   ar
     4    12    13   ar
     5    13     8    1
     6     8     1    1
     7     1     2   ar
     8     2     3   ar
     9     3     4   ar
    10     4     5    1
    11     4     6   ar
    12     6    16    1
    13    16    17    1
    14    17    18    1
    15    18    19   ar
    16    19    20   ar
    17    20    21   ar
    18    21    22    1
    19    21    23   ar
    20    23    24   ar
    21     6     7   ar
    22    13    14   ar
    23    14    15   ar
    24    15    10   ar
    25     7     1   ar
    26    24    18   ar
@<TRIPOS>MOLECULE
*****
 24 26 0 0 0
SMALL
GASTEIGER

@<TRIPOS>ATOM
      1 C         141.6582  138.4818  165.0964 C.ar    1  UNL1       -0.0060
      2 C         141.7655  137.5259  163.9454 C.ar    1  UNL1        0.0719
      3 C         140.6360  137.4009  162.9663 C.ar    1  UNL1        0.2897
      4 N         139.3991  138.2318  163.1382 N.ar    1  UNL1       -0.1589
      5 C         138.2696  138.1068  162.1591 C.3     1  UNL1        0.4081
      6 C         139.2917  139.1877  164.2892 C.ar    1  UNL1        0.2475
      7 C         140.4212  139.3127  165.2683 C.ar    1  UNL1        0.0646
      8 C         142.7877  138.6067  166.0754 C.3     1  UNL1        0.0530
      9 C         142.6814  142.9211  170.2437 C.3     1  UNL1        0.0310
     10 C         142.7080  141.8425  169.2017 C.ar    1  UNL1       -0.0219
     11 C         142.5580  140.4057  169.6054 C.ar    1  UNL1       -0.0046
     12 C         142.5845  139.3271  168.5633 C.ar    1  UNL1       -0.0043
     13 C         142.7611  139.6853  167.1175 C.ar    1  UNL1       -0.0178
     14 C         142.9112  141.1221  166.7138 C.ar    1  UNL1       -0.0043
     15 C         142.8846  142.2007  167.7558 C.ar    1  UNL1       -0.0046
     16 C         138.0548  140.0187  164.4611 C.3     1  UNL1        0.3010
     17 O         138.1389  141.3599  165.1276 O.3     1  UNL1       -0.4642
     18 C         138.6100  142.5544  164.3523 C.ar    1  UNL1        0.1393
     19 C         139.9628  143.1413  164.6276 C.ar    1  UNL1        0.0366
     20 C         140.4340  144.3358  163.8523 C.ar    1  UNL1       -0.0011
     21 C         139.5524  144.9435  162.8018 C.ar    1  UNL1       -0.0217
     22 C         140.0236  146.1380  162.0265 C.3     1  UNL1        0.0310
     23 C         138.1997  144.3566  162.5265 C.ar    1  UNL1       -0.0011
     24 C         137.7285  143.1621  163.3018 C.ar    1  UNL1        0.0366
@<TRIPOS>UNITY_ATOM_ATTR
4 1
charge 1
@<TRIPOS>BOND
     1     9    10    1
     2    10    11   ar
     3    11    12   ar
     4    12    13   ar
     5    13     8    1
     6     8     1    1
     7     1     2   ar
     8     2     3   ar
     9     3     4   ar
    10     4     5    1
    11     4     6   ar
    12     6    16    1
    13    16    17    1
    14    17    18    1
    15    18    19   ar
    16    19    20   ar
    17    20    21   ar
    18    21    22    1
    19    21    23   ar
    20    23    24   ar
    21     6     7   ar
    22    13    14   ar
    23    14    15   ar
    24    15    10   ar
    25     7     1   ar
    26    24    18   ar
@<TRIPOS>MOLECULE
*****
 24 26 0 0 0
SMALL
GASTEIGER

@<TRIPOS>ATOM
      1 C         138.8647  139.6527  165.6734 C.ar    1  UNL1       -0.0060
      2 C         138.0502  140.7455  165.0468 C.ar    1  UNL1        0.0719
      3 C         137.9029  140.8099  163.5555 C.ar    1  UNL1        0.2897
      4 N         138.5700  139.7817  162.6907 N.ar    1  UNL1       -0.1589
      5 C         138.4226  139.8463  161.1993 C.3     1  UNL1        0.4081
      6 C         139.3844  138.6891  163.3173 C.ar    1  UNL1        0.2475
      7 C         139.5319  138.6245  164.8087 C.ar    1  UNL1        0.0646
      8 C         139.0121  139.5883  167.1647 C.3     1  UNL1        0.0530
      9 C         143.6592  142.2810  169.8394 C.3     1  UNL1        0.0310
     10 C         142.4974  141.6078  169.1708 C.ar    1  UNL1       -0.0219
     11 C         142.7382  140.5471  168.1379 C.ar    1  UNL1       -0.0046
     12 C         141.5764  139.8739  167.4692 C.ar    1  UNL1       -0.0043
     13 C         140.1739  140.2614  167.8334 C.ar    1  UNL1       -0.0178
     14 C         139.9331  141.3221  168.8663 C.ar    1  UNL1       -0.0043
     15 C         141.0949  141.9953  169.5350 C.ar    1  UNL1       -0.0046
     16 C         140.0516  137.6609  162.4525 C.3     1  UNL1        0.3010
     17 O         141.4591  137.2332  162.7459 O.3     1  UNL1       -0.4642
     18 C         142.5265  138.2645  162.9626 C.ar    1  UNL1        0.1393
     19 C         142.9853  138.5882  164.3536 C.ar    1  UNL1        0.0366
     20 C         144.0528  139.6195  164.5703 C.ar    1  UNL1       -0.0011
     21 C         144.6615  140.3271  163.3960 C.ar    1  UNL1       -0.0217
     22 C         145.7289  141.3584  163.6127 C.3     1  UNL1        0.0310
     23 C         144.2027  140.0034  162.0051 C.ar    1  UNL1       -0.0011
     24 C         143.1352  138.9721  161.7884 C.ar    1  UNL1        0.0366
@<TRIPOS>UNITY_ATOM_ATTR
4 1
charge 1
@<TRIPOS>BOND
     1     9    10    1
     2    10    11   ar
     3    11    12   ar
     4    12    13   ar
     5    13     8    1
     6     8     1    1
     7     1     2   ar
     8     2     3   ar
     9     3     4   ar
    10     4     5    1
    11     4     6   ar
    12     6    16    1
    13    16    17    1
    14    17    18    1
    15    18    19   ar
    16    19    20   ar
    17    20    21   ar
    18    21    22    1
    19    21    23   ar
    20    23    24   ar
    21     6     7   ar
    22    13    14   ar
    23    14    15   ar
    24    15    10   ar
    25     7     1   ar
    26    24    18   ar
