@<TRIPOS>MOLECULE
*****
 34 38 0 0 0
SMALL
GASTEIGER

@<TRIPOS>ATOM
      1 N         141.0660  144.8946  162.9053 N.3     1  UNL1       -0.2712
      2 C         142.5053  144.7392  162.5128 C.3     1  UNL1        0.0738
      3 C         143.1620  143.8308  163.5096 C.3     1  UNL1        0.0372
      4 C         144.4574  143.1732  163.8830 C.3     1  UNL1        0.0245
      5 C         144.2246  142.3608  165.1223 C.3     1  UNL1        0.0909
      6 N         142.7852  142.5163  165.5148 N.pl3   1  UNL1       -0.3077
      7 C         142.1285  143.4247  164.5180 C.3     1  UNL1        0.0901
      8 C         140.8330  144.0823  164.1446 C.3     1  UNL1        0.0921
      9 C         142.1194  141.8757  166.6965 C.ar    1  UNL1        0.0478
     10 C         142.5564  140.5172  167.1583 C.ar    1  UNL1        0.0145
     11 C         141.8906  139.8767  168.3400 C.ar    1  UNL1        0.0051
     12 C         140.7878  140.5946  169.0599 C.ar    1  UNL1        0.0715
     13 C         140.3507  141.9532  168.5980 C.ar    1  UNL1        0.0051
     14 C         141.0165  142.5938  167.4163 C.ar    1  UNL1        0.0145
     15 C         140.1220  139.9541  170.2416 C.3     1  UNL1        0.4186
     16 F         139.4562  139.3135  171.4233 F       1  UNL1       -0.1659
     17 F         138.9424  140.8648  170.0706 F       1  UNL1       -0.1659
     18 F         141.3016  139.0434  170.4125 F       1  UNL1       -0.1659
     19 C         140.0396  145.7179  162.1850 C.3     1  UNL1        0.0731
     20 C         140.0267  145.7563  160.6855 C.3     1  UNL1        0.0294
     21 C         140.6122  144.6197  159.9010 C.3     1  UNL1        0.0666
     22 S         139.8259  143.3568  159.7098 S.3     1  UNL1       -0.0756
     23 C         138.6076  141.3457  162.7980 C.ar    1  UNL1        0.2029
     24 N         137.4135  142.2121  162.5268 N.ar    1  UNL1       -0.1250
     25 N         137.7245  143.0709  161.3369 N.ar    1  UNL1       -0.1220
     26 C         139.1109  142.7353  160.8728 C.ar    1  UNL1        0.1933
     27 N         139.6567  141.6691  161.7757 N.ar    1  UNL1       -0.2860
     28 C         141.0133  141.0372  161.6743 C.3     1  UNL1        0.1341
     29 C         138.5496  138.1029  162.4369 C.3     1  UNL1        0.0556
     30 C         138.7043  138.8431  163.7323 C.ar    1  UNL1        0.1001
     31 N         138.8595  138.2228  165.0892 N.ar    1  UNL1       -0.2085
     32 C         138.9822  139.3300  166.0938 C.ar    1  UNL1        0.2849
     33 O         138.9027  140.6346  165.3578 O.2     1  UNL1       -0.4283
     34 C         138.7310  140.3337  163.8983 C.ar    1  UNL1        0.1964
@<TRIPOS>BOND
     1    29    30    1
     2    30    31   ar
     3    31    32   ar
     4    32    33   ar
     5    33    34   ar
     6    34    23    1
     7    23    24   ar
     8    24    25   ar
     9    25    26   ar
    10    26    22    1
    11    22    21    1
    12    21    20    1
    13    20    19    1
    14    19     1    1
    15     1     2    1
    16     2     3    1
    17     3     4    1
    18     4     5    1
    19     5     6    1
    20     6     9    1
    21     9    10   ar
    22    10    11   ar
    23    11    12   ar
    24    12    15    1
    25    15    16    1
    26    15    17    1
    27    15    18    1
    28    12    13   ar
    29    13    14   ar
    30     6     7    1
    31     7     8    1
    32    26    27   ar
    33    27    28    1
    34    34    30   ar
    35    27    23   ar
    36     8     1    1
    37     7     3    1
    38    14     9   ar
@<TRIPOS>MOLECULE
*****
 34 38 0 0 0
SMALL
GASTEIGER

@<TRIPOS>ATOM
      1 N         138.0242  140.4461  162.6345 N.3     1  UNL1       -0.2712
      2 C         137.6415  141.8900  162.4977 C.3     1  UNL1        0.0738
      3 C         138.2196  142.6352  163.6641 C.3     1  UNL1        0.0372
      4 C         138.3403  143.9881  164.3005 C.3     1  UNL1        0.0245
      5 C         139.1549  143.8410  165.5514 C.3     1  UNL1        0.0909
      6 N         139.5376  142.3971  165.6882 N.pl3   1  UNL1       -0.3077
      7 C         138.9595  141.6519  164.5218 C.3     1  UNL1        0.0901
      8 C         138.8388  140.2989  163.8854 C.3     1  UNL1        0.0921
      9 C         140.3549  141.8027  166.7967 C.ar    1  UNL1        0.0478
     10 C         141.7293  142.3315  167.0817 C.ar    1  UNL1        0.0145
     11 C         142.5466  141.7372  168.1903 C.ar    1  UNL1        0.0051
     12 C         141.9895  140.6141  169.0137 C.ar    1  UNL1        0.0715
     13 C         140.6150  140.0852  168.7287 C.ar    1  UNL1        0.0051
     14 C         139.7977  140.6795  167.6202 C.ar    1  UNL1        0.0145
     15 C         142.8068  140.0197  170.1222 C.3     1  UNL1        0.4186
     16 F         143.6240  139.4254  171.2308 F       1  UNL1       -0.1659
     17 F         143.7740  141.1617  170.0214 F       1  UNL1       -0.1659
     18 F         141.8395  138.8777  170.2231 F       1  UNL1       -0.1659
     19 C         137.6569  139.3430  161.6867 C.3     1  UNL1        0.0731
     20 C         138.6385  138.2470  161.3948 C.3     1  UNL1        0.0294
     21 C         139.7304  138.4660  160.3899 C.3     1  UNL1        0.0666
     22 S         141.1662  138.4291  160.8224 S.3     1  UNL1       -0.0756
     23 C         142.2755  141.3982  163.0629 C.ar    1  UNL1        0.2029
     24 N         142.5332  140.2350  163.9744 N.ar    1  UNL1       -0.1250
     25 N         142.1490  138.9813  163.2461 N.ar    1  UNL1       -0.1220
     26 C         141.6539  139.3695  161.8844 C.ar    1  UNL1        0.1933
     27 N         141.7320  140.8632  161.7712 N.ar    1  UNL1       -0.2860
     28 C         141.3362  141.6787  160.5761 C.3     1  UNL1        0.1341
     29 C         144.9218  142.6153  164.5344 C.3     1  UNL1        0.0556
     30 C         143.7350  143.4020  164.0627 C.ar    1  UNL1        0.1001
     31 N         143.5561  144.8863  164.1845 N.ar    1  UNL1       -0.2085
     32 C         142.2292  145.2442  163.5835 C.ar    1  UNL1        0.2849
     33 O         141.5880  143.9811  163.0901 O.2     1  UNL1       -0.4283
     34 C         142.5186  142.8426  163.3863 C.ar    1  UNL1        0.1964
@<TRIPOS>BOND
     1    29    30    1
     2    30    31   ar
     3    31    32   ar
     4    32    33   ar
     5    33    34   ar
     6    34    23    1
     7    23    24   ar
     8    24    25   ar
     9    25    26   ar
    10    26    22    1
    11    22    21    1
    12    21    20    1
    13    20    19    1
    14    19     1    1
    15     1     2    1
    16     2     3    1
    17     3     4    1
    18     4     5    1
    19     5     6    1
    20     6     9    1
    21     9    10   ar
    22    10    11   ar
    23    11    12   ar
    24    12    15    1
    25    15    16    1
    26    15    17    1
    27    15    18    1
    28    12    13   ar
    29    13    14   ar
    30     6     7    1
    31     7     8    1
    32    26    27   ar
    33    27    28    1
    34    34    30   ar
    35    27    23   ar
    36     8     1    1
    37     7     3    1
    38    14     9   ar
@<TRIPOS>MOLECULE
*****
 34 38 0 0 0
SMALL
GASTEIGER

@<TRIPOS>ATOM
      1 N         142.1444  143.5513  161.8329 N.3     1  UNL1       -0.2712
      2 C         143.0428  142.6163  161.0789 C.3     1  UNL1        0.0738
      3 C         143.5858  141.6109  162.0507 C.3     1  UNL1        0.0372
      4 C         144.4767  140.4117  162.1853 C.3     1  UNL1        0.0245
      5 C         144.4646  139.9842  163.6230 C.3     1  UNL1        0.0909
      6 N         143.5661  140.9193  164.3770 N.pl3   1  UNL1       -0.3077
      7 C         143.0230  141.9246  163.4052 C.3     1  UNL1        0.0901
      8 C         142.1321  143.1239  163.2706 C.3     1  UNL1        0.0921
      9 C         143.2637  140.8594  165.8450 C.ar    1  UNL1        0.0478
     10 C         142.8889  139.5537  166.4810 C.ar    1  UNL1        0.0145
     11 C         142.5866  139.4939  167.9490 C.ar    1  UNL1        0.0051
     12 C         142.6591  140.7398  168.7810 C.ar    1  UNL1        0.0715
     13 C         143.0339  142.0456  168.1451 C.ar    1  UNL1        0.0051
     14 C         143.3363  142.1055  166.6771 C.ar    1  UNL1        0.0145
     15 C         142.3568  140.6800  170.2490 C.3     1  UNL1        0.4186
     16 F         142.0544  140.6202  171.7170 F       1  UNL1       -0.1659
     17 F         142.6286  142.1506  170.3649 F       1  UNL1       -0.1659
     18 F         142.0850  139.2094  170.1331 F       1  UNL1       -0.1659
     19 C         141.3905  144.7104  161.2512 C.3     1  UNL1        0.0731
     20 C         140.3978  145.4571  162.0919 C.3     1  UNL1        0.0294
     21 C         139.0172  144.9051  162.2904 C.3     1  UNL1        0.0666
     22 S         138.4610  144.7562  163.6755 S.3     1  UNL1       -0.0756
     23 C         138.9853  141.2916  165.3451 C.ar    1  UNL1        0.2029
     24 N         139.8152  142.1702  166.2336 N.ar    1  UNL1       -0.1250
     25 N         139.7198  143.5750  165.7163 N.ar    1  UNL1       -0.1220
     26 C         138.8309  143.5646  164.5081 C.ar    1  UNL1        0.1933
     27 N         138.3769  142.1535  164.2786 N.ar    1  UNL1       -0.2860
     28 C         137.4733  141.6862  163.1763 C.3     1  UNL1        0.1341
     29 C         140.5101  138.9776  163.6218 C.3     1  UNL1        0.0556
     30 C         139.4977  138.7476  164.7044 C.ar    1  UNL1        0.1001
     31 N         139.0083  137.4136  165.1849 N.ar    1  UNL1       -0.2085
     32 C         138.0050  137.6528  166.2740 C.ar    1  UNL1        0.2849
     33 O         137.8742  139.1346  166.4666 O.2     1  UNL1       -0.4283
     34 C         138.7968  139.8112  165.4965 C.ar    1  UNL1        0.1964
@<TRIPOS>BOND
     1    29    30    1
     2    30    31   ar
     3    31    32   ar
     4    32    33   ar
     5    33    34   ar
     6    34    23    1
     7    23    24   ar
     8    24    25   ar
     9    25    26   ar
    10    26    22    1
    11    22    21    1
    12    21    20    1
    13    20    19    1
    14    19     1    1
    15     1     2    1
    16     2     3    1
    17     3     4    1
    18     4     5    1
    19     5     6    1
    20     6     9    1
    21     9    10   ar
    22    10    11   ar
    23    11    12   ar
    24    12    15    1
    25    15    16    1
    26    15    17    1
    27    15    18    1
    28    12    13   ar
    29    13    14   ar
    30     6     7    1
    31     7     8    1
    32    26    27   ar
    33    27    28    1
    34    34    30   ar
    35    27    23   ar
    36     8     1    1
    37     7     3    1
    38    14     9   ar
@<TRIPOS>MOLECULE
*****
 34 38 0 0 0
SMALL
GASTEIGER

@<TRIPOS>ATOM
      1 N         140.8012  143.5673  159.8611 N.3     1  UNL1       -0.2712
      2 C         141.3420  144.7668  160.5813 C.3     1  UNL1        0.0738
      3 C         141.1978  144.5265  162.0549 C.3     1  UNL1        0.0372
      4 C         141.4430  145.1194  163.4108 C.3     1  UNL1        0.0245
      5 C         140.9646  144.1379  164.4393 C.3     1  UNL1        0.0909
      6 N         140.4238  142.9384  163.7190 N.pl3   1  UNL1       -0.3077
      7 C         140.5679  143.1786  162.2454 C.3     1  UNL1        0.0901
      8 C         140.3228  142.5857  160.8895 C.3     1  UNL1        0.0921
      9 C         139.8411  141.7137  164.3598 C.ar    1  UNL1        0.0478
     10 C         138.6740  141.0179  163.7245 C.ar    1  UNL1        0.0145
     11 C         138.0913  139.7932  164.3653 C.ar    1  UNL1        0.0051
     12 C         138.6757  139.2644  165.6415 C.ar    1  UNL1        0.0715
     13 C         139.8428  139.9602  166.2770 C.ar    1  UNL1        0.0051
     14 C         140.4255  141.1849  165.6361 C.ar    1  UNL1        0.0145
     15 C         138.0930  138.0397  166.2824 C.3     1  UNL1        0.4186
     16 F         137.5103  136.8151  166.9232 F       1  UNL1       -0.1659
     17 F         138.8142  137.1771  165.2896 F       1  UNL1       -0.1659
     18 F         137.3718  138.9024  167.2752 F       1  UNL1       -0.1659
     19 C         140.7481  143.3819  158.3735 C.3     1  UNL1        0.0731
     20 C         141.8681  142.6796  157.6648 C.3     1  UNL1        0.0294
     21 C         143.2431  143.2792  157.6561 C.3     1  UNL1        0.0666
     22 S         144.4196  142.4641  158.1047 S.3     1  UNL1       -0.0756
     23 C         143.9476  139.9887  161.0568 C.ar    1  UNL1        0.2029
     24 N         143.8680  139.0584  159.8828 N.ar    1  UNL1       -0.1250
     25 N         144.0351  139.8724  158.6341 N.ar    1  UNL1       -0.1220
     26 C         144.2180  141.3059  159.0363 C.ar    1  UNL1        0.1933
     27 N         144.1640  141.3778  160.5336 N.ar    1  UNL1       -0.2860
     28 C         144.3020  142.6205  161.3622 C.3     1  UNL1        0.1341
     29 C         141.3295  138.6574  162.4791 C.3     1  UNL1        0.0556
     30 C         142.6279  138.9865  163.1542 C.ar    1  UNL1        0.1001
     31 N         142.9509  138.7615  164.6017 N.ar    1  UNL1       -0.2085
     32 C         144.3539  139.2343  164.8425 C.ar    1  UNL1        0.2849
     33 O         144.8981  139.7516  163.5439 O.2     1  UNL1       -0.4283
     34 C         143.8313  139.5984  162.5005 C.ar    1  UNL1        0.1964
@<TRIPOS>BOND
     1    29    30    1
     2    30    31   ar
     3    31    32   ar
     4    32    33   ar
     5    33    34   ar
     6    34    23    1
     7    23    24   ar
     8    24    25   ar
     9    25    26   ar
    10    26    22    1
    11    22    21    1
    12    21    20    1
    13    20    19    1
    14    19     1    1
    15     1     2    1
    16     2     3    1
    17     3     4    1
    18     4     5    1
    19     5     6    1
    20     6     9    1
    21     9    10   ar
    22    10    11   ar
    23    11    12   ar
    24    12    15    1
    25    15    16    1
    26    15    17    1
    27    15    18    1
    28    12    13   ar
    29    13    14   ar
    30     6     7    1
    31     7     8    1
    32    26    27   ar
    33    27    28    1
    34    34    30   ar
    35    27    23   ar
    36     8     1    1
    37     7     3    1
    38    14     9   ar
@<TRIPOS>MOLECULE
*****
 34 38 0 0 0
SMALL
GASTEIGER

@<TRIPOS>ATOM
      1 N         141.4043  138.1322  162.9977 N.3     1  UNL1       -0.2712
      2 C         140.0286  137.5686  163.1969 C.3     1  UNL1        0.0738
      3 C         139.5050  138.0765  164.5075 C.3     1  UNL1        0.0372
      4 C         138.3311  138.0420  165.4407 C.3     1  UNL1        0.0245
      5 C         138.6577  138.8982  166.6283 C.3     1  UNL1        0.0909
      6 N         140.0335  139.4619  166.4290 N.pl3   1  UNL1       -0.3077
      7 C         140.5571  138.9540  165.1184 C.3     1  UNL1        0.0901
      8 C         141.7310  138.9884  164.1852 C.3     1  UNL1        0.0921
      9 C         140.7583  140.3733  167.3745 C.ar    1  UNL1        0.0478
     10 C         142.1986  140.7144  167.1313 C.ar    1  UNL1        0.0145
     11 C         142.9235  141.6259  168.0768 C.ar    1  UNL1        0.0051
     12 C         142.2081  142.1962  169.2654 C.ar    1  UNL1        0.0715
     13 C         140.7677  141.8551  169.5086 C.ar    1  UNL1        0.0051
     14 C         140.0428  140.9436  168.5632 C.ar    1  UNL1        0.0145
     15 C         142.9329  143.1076  170.2108 C.3     1  UNL1        0.4186
     16 F         143.6578  144.0191  171.1563 F       1  UNL1       -0.1659
     17 F         141.7216  143.9888  170.2899 F       1  UNL1       -0.1659
     18 F         144.1442  142.2264  170.1317 F       1  UNL1       -0.1659
     19 C         142.2968  137.8833  161.8180 C.3     1  UNL1        0.0731
     20 C         143.6456  138.5356  161.7472 C.3     1  UNL1        0.0294
     21 C         143.9948  139.4118  160.5808 C.3     1  UNL1        0.0666
     22 S         143.9873  140.9038  160.7349 S.3     1  UNL1       -0.0756
     23 C         141.3176  142.4146  163.1131 C.ar    1  UNL1        0.2029
     24 N         142.5700  142.6269  163.9109 N.ar    1  UNL1       -0.1250
     25 N         143.7225  142.0868  163.1172 N.ar    1  UNL1       -0.1220
     26 C         143.1824  141.5407  161.8287 C.ar    1  UNL1        0.1933
     27 N         141.6961  141.7433  161.8262 N.ar    1  UNL1       -0.2860
     28 C         140.7538  141.3445  160.7294 C.3     1  UNL1        0.1341
     29 C         139.9316  145.3351  162.6666 C.3     1  UNL1        0.0556
     30 C         139.2933  144.1475  163.3239 C.ar    1  UNL1        0.1001
     31 N         137.9058  144.0937  163.8914 N.ar    1  UNL1       -0.2085
     32 C         137.6854  142.7181  164.4474 C.ar    1  UNL1        0.2849
     33 O         138.9366  141.9216  164.2235 O.2     1  UNL1       -0.4283
     34 C         139.9303  142.8051  163.5292 C.ar    1  UNL1        0.1964
@<TRIPOS>BOND
     1    29    30    1
     2    30    31   ar
     3    31    32   ar
     4    32    33   ar
     5    33    34   ar
     6    34    23    1
     7    23    24   ar
     8    24    25   ar
     9    25    26   ar
    10    26    22    1
    11    22    21    1
    12    21    20    1
    13    20    19    1
    14    19     1    1
    15     1     2    1
    16     2     3    1
    17     3     4    1
    18     4     5    1
    19     5     6    1
    20     6     9    1
    21     9    10   ar
    22    10    11   ar
    23    11    12   ar
    24    12    15    1
    25    15    16    1
    26    15    17    1
    27    15    18    1
    28    12    13   ar
    29    13    14   ar
    30     6     7    1
    31     7     8    1
    32    26    27   ar
    33    27    28    1
    34    34    30   ar
    35    27    23   ar
    36     8     1    1
    37     7     3    1
    38    14     9   ar
@<TRIPOS>MOLECULE
*****
 34 38 0 0 0
SMALL
GASTEIGER

@<TRIPOS>ATOM
      1 N         142.1331  144.0755  161.8230 N.3     1  UNL1       -0.2712
      2 C         143.3464  143.5024  161.1525 C.3     1  UNL1        0.0738
      3 C         144.0291  142.5917  162.1296 C.3     1  UNL1        0.0372
      4 C         145.2009  141.6747  162.3190 C.3     1  UNL1        0.0245
      5 C         145.1339  141.1182  163.7104 C.3     1  UNL1        0.0909
      6 N         143.9205  141.6913  164.3808 N.pl3   1  UNL1       -0.3077
      7 C         143.2378  142.6020  163.4038 C.3     1  UNL1        0.0901
      8 C         142.0660  143.5190  163.2143 C.3     1  UNL1        0.0921
      9 C         143.4692  141.4042  165.7822 C.ar    1  UNL1        0.0478
     10 C         143.4648  142.4988  166.8078 C.ar    1  UNL1        0.0145
     11 C         143.0135  142.2116  168.2092 C.ar    1  UNL1        0.0051
     12 C         142.5666  140.8300  168.5850 C.ar    1  UNL1        0.0715
     13 C         142.5710  139.7353  167.5594 C.ar    1  UNL1        0.0051
     14 C         143.0223  140.0225  166.1580 C.ar    1  UNL1        0.0145
     15 C         142.1153  140.5428  169.9864 C.3     1  UNL1        0.4186
     16 F         141.6640  140.2557  171.3878 F       1  UNL1       -0.1659
     17 F         143.0459  141.6000  170.5027 F       1  UNL1       -0.1659
     18 F         141.1848  139.4857  169.4701 F       1  UNL1       -0.1659
     19 C         141.1581  145.0363  161.2097 C.3     1  UNL1        0.0731
     20 C         140.5354  144.7270  159.8806 C.3     1  UNL1        0.0294
     21 C         140.4375  143.3059  159.4107 C.3     1  UNL1        0.0666
     22 S         139.2023  142.5046  159.6972 S.3     1  UNL1       -0.0756
     23 C         138.4608  141.5510  163.3859 C.ar    1  UNL1        0.2029
     24 N         137.4903  142.6755  163.1765 N.ar    1  UNL1       -0.1250
     25 N         137.6500  143.1696  161.7692 N.ar    1  UNL1       -0.1220
     26 C         138.7191  142.3504  161.1089 C.ar    1  UNL1        0.1933
     27 N         139.2203  141.3501  162.1080 N.ar    1  UNL1       -0.2860
     28 C         140.2925  140.3284  161.8709 C.3     1  UNL1        0.1341
     29 C         139.9598  142.5894  166.0923 C.3     1  UNL1        0.0556
     30 C         139.3293  141.2427  165.8950 C.ar    1  UNL1        0.1001
     31 N         139.2771  140.1368  166.9071 N.ar    1  UNL1       -0.2085
     32 C         138.5558  138.9761  166.2887 C.ar    1  UNL1        0.2849
     33 O         138.1622  139.3646  164.8943 O.2     1  UNL1       -0.4283
     34 C         138.6403  140.7654  164.6511 C.ar    1  UNL1        0.1964
@<TRIPOS>BOND
     1    29    30    1
     2    30    31   ar
     3    31    32   ar
     4    32    33   ar
     5    33    34   ar
     6    34    23    1
     7    23    24   ar
     8    24    25   ar
     9    25    26   ar
    10    26    22    1
    11    22    21    1
    12    21    20    1
    13    20    19    1
    14    19     1    1
    15     1     2    1
    16     2     3    1
    17     3     4    1
    18     4     5    1
    19     5     6    1
    20     6     9    1
    21     9    10   ar
    22    10    11   ar
    23    11    12   ar
    24    12    15    1
    25    15    16    1
    26    15    17    1
    27    15    18    1
    28    12    13   ar
    29    13    14   ar
    30     6     7    1
    31     7     8    1
    32    26    27   ar
    33    27    28    1
    34    34    30   ar
    35    27    23   ar
    36     8     1    1
    37     7     3    1
    38    14     9   ar
@<TRIPOS>MOLECULE
*****
 34 38 0 0 0
SMALL
GASTEIGER

@<TRIPOS>ATOM
      1 N         143.7469  142.2260  160.8701 N.3     1  UNL1       -0.2712
      2 C         144.6861  143.0139  161.7344 C.3     1  UNL1        0.0738
      3 C         144.2896  142.7995  163.1651 C.3     1  UNL1        0.0372
      4 C         144.6250  143.1540  164.5835 C.3     1  UNL1        0.0245
      5 C         143.6481  142.4526  165.4800 C.3     1  UNL1        0.0909
      6 N         142.7089  141.6646  164.6156 N.pl3   1  UNL1       -0.3077
      7 C         143.1054  141.8790  163.1850 C.3     1  UNL1        0.0901
      8 C         142.7700  141.5246  161.7666 C.3     1  UNL1        0.0921
      9 C         141.5727  140.8120  165.0974 C.ar    1  UNL1        0.0478
     10 C         141.5042  139.3647  164.7096 C.ar    1  UNL1        0.0145
     11 C         140.3680  138.5120  165.1913 C.ar    1  UNL1        0.0051
     12 C         139.3003  139.1068  166.0609 C.ar    1  UNL1        0.0715
     13 C         139.3687  140.5542  166.4487 C.ar    1  UNL1        0.0051
     14 C         140.5049  141.4068  165.9670 C.ar    1  UNL1        0.0145
     15 C         138.1641  138.2541  166.5426 C.3     1  UNL1        0.4186
     16 F         137.0279  137.4015  167.0244 F       1  UNL1       -0.1659
     17 F         137.9327  139.2049  167.6796 F       1  UNL1       -0.1659
     18 F         138.3955  137.3034  165.4057 F       1  UNL1       -0.1659
     19 C         143.7790  142.1523  159.3722 C.3     1  UNL1        0.0731
     20 C         143.0690  143.1904  158.5549 C.3     1  UNL1        0.0294
     21 C         141.9796  142.7832  157.6075 C.3     1  UNL1        0.0666
     22 S         140.5511  143.1193  157.9181 S.3     1  UNL1       -0.0756
     23 C         139.5433  144.5748  161.3724 C.ar    1  UNL1        0.2029
     24 N         139.8778  145.8266  160.6167 N.ar    1  UNL1       -0.1250
     25 N         140.2961  145.4338  159.2308 N.ar    1  UNL1       -0.1220
     26 C         140.2200  143.9391  159.1299 C.ar    1  UNL1        0.1933
     27 N         139.7548  143.4082  160.4534 N.ar    1  UNL1       -0.2860
     28 C         139.5389  141.9642  160.7975 C.3     1  UNL1        0.1341
     29 C         141.3898  145.0590  164.0191 C.3     1  UNL1        0.0556
     30 C         139.9276  144.7248  164.0134 C.ar    1  UNL1        0.1001
     31 N         139.0573  144.5545  165.2231 N.ar    1  UNL1       -0.2085
     32 C         137.6707  144.2266  164.7543 C.ar    1  UNL1        0.2849
     33 O         137.6839  144.1943  163.2547 O.2     1  UNL1       -0.4283
     34 C         139.0788  144.5022  162.7968 C.ar    1  UNL1        0.1964
@<TRIPOS>BOND
     1    29    30    1
     2    30    31   ar
     3    31    32   ar
     4    32    33   ar
     5    33    34   ar
     6    34    23    1
     7    23    24   ar
     8    24    25   ar
     9    25    26   ar
    10    26    22    1
    11    22    21    1
    12    21    20    1
    13    20    19    1
    14    19     1    1
    15     1     2    1
    16     2     3    1
    17     3     4    1
    18     4     5    1
    19     5     6    1
    20     6     9    1
    21     9    10   ar
    22    10    11   ar
    23    11    12   ar
    24    12    15    1
    25    15    16    1
    26    15    17    1
    27    15    18    1
    28    12    13   ar
    29    13    14   ar
    30     6     7    1
    31     7     8    1
    32    26    27   ar
    33    27    28    1
    34    34    30   ar
    35    27    23   ar
    36     8     1    1
    37     7     3    1
    38    14     9   ar
@<TRIPOS>MOLECULE
*****
 34 38 0 0 0
SMALL
GASTEIGER

@<TRIPOS>ATOM
      1 N         142.5287  138.1892  162.6091 N.3     1  UNL1       -0.2712
      2 C         141.1582  137.5797  162.6176 C.3     1  UNL1        0.0738
      3 C         140.4585  138.0298  163.8656 C.3     1  UNL1        0.0372
      4 C         139.1789  137.9312  164.6422 C.3     1  UNL1        0.0245
      5 C         139.3261  138.7581  165.8851 C.3     1  UNL1        0.0909
      6 N         140.6967  139.3676  165.8767 N.pl3   1  UNL1       -0.3077
      7 C         141.3965  138.9175  164.6286 C.3     1  UNL1        0.0901
      8 C         142.6760  139.0161  163.8520 C.3     1  UNL1        0.0921
      9 C         141.2673  140.2690  166.9311 C.ar    1  UNL1        0.0478
     10 C         140.7213  140.2290  168.3276 C.ar    1  UNL1        0.0145
     11 C         141.2919  141.1304  169.3821 C.ar    1  UNL1        0.0051
     12 C         142.4085  142.0718  169.0401 C.ar    1  UNL1        0.0715
     13 C         142.9546  142.1118  167.6435 C.ar    1  UNL1        0.0051
     14 C         142.3840  141.2104  166.5891 C.ar    1  UNL1        0.0145
     15 C         142.9791  142.9732  170.0946 C.3     1  UNL1        0.4186
     16 F         143.5497  143.8746  171.1491 F       1  UNL1       -0.1659
     17 F         144.2965  142.2639  169.9881 F       1  UNL1       -0.1659
     18 F         141.6617  143.6825  170.2011 F       1  UNL1       -0.1659
     19 C         143.5693  138.0044  161.5447 C.3     1  UNL1        0.0731
     20 C         143.9034  139.1356  160.6179 C.3     1  UNL1        0.0294
     21 C         143.3401  139.1578  159.2279 C.3     1  UNL1        0.0666
     22 S         142.7703  140.4281  158.6697 S.3     1  UNL1       -0.0756
     23 C         141.7678  143.1680  161.2297 C.ar    1  UNL1        0.2029
     24 N         142.9719  143.7945  160.5912 N.ar    1  UNL1       -0.1250
     25 N         143.4940  142.8444  159.5545 N.ar    1  UNL1       -0.1220
     26 C         142.6126  141.6307  159.5523 C.ar    1  UNL1        0.1933
     27 N         141.5457  141.8306  160.5876 N.ar    1  UNL1       -0.2860
     28 C         140.4493  140.8631  160.9221 C.3     1  UNL1        0.1341
     29 C         142.8213  144.0483  164.1903 C.3     1  UNL1        0.0556
     30 C         141.4167  144.1772  163.6799 C.ar    1  UNL1        0.1001
     31 N         140.2497  144.7335  164.4406 N.ar    1  UNL1       -0.2085
     32 C         139.0442  144.6726  163.5500 C.ar    1  UNL1        0.2849
     33 O         139.4662  144.0787  162.2388 O.2     1  UNL1       -0.4283
     34 C         140.9324  143.7726  162.3191 C.ar    1  UNL1        0.1964
@<TRIPOS>BOND
     1    29    30    1
     2    30    31   ar
     3    31    32   ar
     4    32    33   ar
     5    33    34   ar
     6    34    23    1
     7    23    24   ar
     8    24    25   ar
     9    25    26   ar
    10    26    22    1
    11    22    21    1
    12    21    20    1
    13    20    19    1
    14    19     1    1
    15     1     2    1
    16     2     3    1
    17     3     4    1
    18     4     5    1
    19     5     6    1
    20     6     9    1
    21     9    10   ar
    22    10    11   ar
    23    11    12   ar
    24    12    15    1
    25    15    16    1
    26    15    17    1
    27    15    18    1
    28    12    13   ar
    29    13    14   ar
    30     6     7    1
    31     7     8    1
    32    26    27   ar
    33    27    28    1
    34    34    30   ar
    35    27    23   ar
    36     8     1    1
    37     7     3    1
    38    14     9   ar
@<TRIPOS>MOLECULE
*****
 34 38 0 0 0
SMALL
GASTEIGER

@<TRIPOS>ATOM
      1 N         142.2634  138.1174  162.6357 N.3     1  UNL1       -0.2712
      2 C         140.8864  137.5236  162.6716 C.3     1  UNL1        0.0738
      3 C         140.2144  137.9872  163.9299 C.3     1  UNL1        0.0372
      4 C         138.9480  137.9068  164.7298 C.3     1  UNL1        0.0245
      5 C         139.1269  138.7374  165.9660 C.3     1  UNL1        0.0909
      6 N         140.5040  139.3313  165.9300 N.pl3   1  UNL1       -0.3077
      7 C         141.1760  138.8676  164.6717 C.3     1  UNL1        0.0901
      8 C         142.4424  138.9481  163.8718 C.3     1  UNL1        0.0921
      9 C         141.1036  140.2308  166.9699 C.ar    1  UNL1        0.0478
     10 C         142.2486  139.7474  167.8097 C.ar    1  UNL1        0.0145
     11 C         142.8483  140.6469  168.8495 C.ar    1  UNL1        0.0051
     12 C         142.3029  142.0299  169.0495 C.ar    1  UNL1        0.0715
     13 C         141.1579  142.5133  168.2097 C.ar    1  UNL1        0.0051
     14 C         140.5582  141.6138  167.1699 C.ar    1  UNL1        0.0145
     15 C         142.9026  142.9294  170.0894 C.3     1  UNL1        0.4186
     16 F         143.5022  143.8289  171.1292 F       1  UNL1       -0.1659
     17 F         141.6446  143.7463  170.1081 F       1  UNL1       -0.1659
     18 F         144.1605  142.1125  170.0706 F       1  UNL1       -0.1659
     19 C         143.2825  137.9160  161.5536 C.3     1  UNL1        0.0731
     20 C         142.8396  137.7029  160.1365 C.3     1  UNL1        0.0294
     21 C         142.7439  138.8684  159.1971 C.3     1  UNL1        0.0666
     22 S         141.4035  139.3248  158.7023 S.3     1  UNL1       -0.0756
     23 C         139.4218  141.6607  161.0860 C.ar    1  UNL1        0.2029
     24 N         138.5439  140.4445  161.0759 N.ar    1  UNL1       -0.1250
     25 N         139.1793  139.4214  160.1817 N.ar    1  UNL1       -0.1220
     26 C         140.4501  140.0053  159.6392 C.ar    1  UNL1        0.1933
     27 N         140.6000  141.3892  160.1980 N.ar    1  UNL1       -0.2860
     28 C         141.7296  142.3356  159.9181 C.3     1  UNL1        0.1341
     29 C         138.4317  141.8614  164.1891 C.3     1  UNL1        0.0556
     30 C         138.7114  143.0184  163.2763 C.ar    1  UNL1        0.1001
     31 N         138.5852  144.4707  163.6295 N.ar    1  UNL1       -0.2085
     32 C         138.9622  145.2760  162.4215 C.ar    1  UNL1        0.2849
     33 O         139.3216  144.3214  161.3216 O.2     1  UNL1       -0.4283
     34 C         139.1665  142.9261  161.8500 C.ar    1  UNL1        0.1964
@<TRIPOS>BOND
     1    29    30    1
     2    30    31   ar
     3    31    32   ar
     4    32    33   ar
     5    33    34   ar
     6    34    23    1
     7    23    24   ar
     8    24    25   ar
     9    25    26   ar
    10    26    22    1
    11    22    21    1
    12    21    20    1
    13    20    19    1
    14    19     1    1
    15     1     2    1
    16     2     3    1
    17     3     4    1
    18     4     5    1
    19     5     6    1
    20     6     9    1
    21     9    10   ar
    22    10    11   ar
    23    11    12   ar
    24    12    15    1
    25    15    16    1
    26    15    17    1
    27    15    18    1
    28    12    13   ar
    29    13    14   ar
    30     6     7    1
    31     7     8    1
    32    26    27   ar
    33    27    28    1
    34    34    30   ar
    35    27    23   ar
    36     8     1    1
    37     7     3    1
    38    14     9   ar
