@<TRIPOS>MOLECULE
*****
 9 9 0 0 0
SMALL
GASTEIGER

@<TRIPOS>ATOM
      1 N         146.2860  133.3177  173.5793 N.pl3   1  UNL1       -0.3569
      2 C         145.9373  134.6150  172.9120 C.ar    1  UNL1        0.0446
      3 C         146.7324  135.8508  173.2131 C.ar    1  UNL1        0.0348
      4 C         146.3836  137.1481  172.5459 C.ar    1  UNL1        0.1001
      5 N         145.2398  137.2097  171.5775 N.ar    1  UNL1       -0.2422
      6 C         144.4447  135.9740  171.2764 C.ar    1  UNL1        0.1001
      7 C         144.7935  134.6766  171.9436 C.ar    1  UNL1        0.0348
      8 H         147.0368  133.2773  174.2149 H       1  UNL1        0.1424
      9 H         145.7642  132.5066  173.3817 H       1  UNL1        0.1424
@<TRIPOS>BOND
     1     1     2    1
     2     2     3   ar
     3     3     4   ar
     4     4     5   ar
     5     5     6   ar
     6     6     7   ar
     7     7     2   ar
     8     1     8    1
     9     1     9    1
@<TRIPOS>MOLECULE
*****
 9 9 0 0 0
SMALL
GASTEIGER

@<TRIPOS>ATOM
      1 N         143.4038  143.9756  171.2460 N.pl3   1  UNL1       -0.3569
      2 C         142.6987  143.0593  170.2903 C.ar    1  UNL1        0.0446
      3 C         141.2810  143.3406  169.8894 C.ar    1  UNL1        0.0348
      4 C         140.5759  142.4243  168.9337 C.ar    1  UNL1        0.1001
      5 N         141.2886  141.2268  168.3789 N.ar    1  UNL1       -0.2422
      6 C         142.7064  140.9455  168.7798 C.ar    1  UNL1        0.1001
      7 C         143.4114  141.8618  169.7355 C.ar    1  UNL1        0.0348
      8 H         142.9360  144.7616  171.6102 H       1  UNL1        0.1424
      9 H         144.3343  143.7909  171.5092 H       1  UNL1        0.1424
@<TRIPOS>BOND
     1     1     2    1
     2     2     3   ar
     3     3     4   ar
     4     4     5   ar
     5     5     6   ar
     6     6     7   ar
     7     7     2   ar
     8     1     8    1
     9     1     9    1
@<TRIPOS>MOLECULE
*****
 9 9 0 0 0
SMALL
GASTEIGER

@<TRIPOS>ATOM
      1 N         143.4002  143.9775  171.2439 N.pl3   1  UNL1       -0.3569
      2 C         142.6989  143.0563  170.2902 C.ar    1  UNL1        0.0446
      3 C         143.4136  141.8557  169.7447 C.ar    1  UNL1        0.0348
      4 C         142.7122  140.9345  168.7910 C.ar    1  UNL1        0.1001
      5 N         141.2962  141.2139  168.3828 N.ar    1  UNL1       -0.2422
      6 C         140.5815  142.4146  168.9283 C.ar    1  UNL1        0.1001
      7 C         141.2828  143.3358  169.8820 C.ar    1  UNL1        0.0348
      8 H         144.3296  143.7941  171.5118 H       1  UNL1        0.1424
      9 H         142.9311  144.7656  171.6019 H       1  UNL1        0.1424
@<TRIPOS>BOND
     1     1     2    1
     2     2     3   ar
     3     3     4   ar
     4     4     5   ar
     5     5     6   ar
     6     6     7   ar
     7     7     2   ar
     8     1     8    1
     9     1     9    1
@<TRIPOS>MOLECULE
*****
 9 9 0 0 0
SMALL
GASTEIGER

@<TRIPOS>ATOM
      1 N         143.8737  139.5887  171.3800 N.pl3   1  UNL1       -0.3569
      2 C         142.9654  140.2128  170.3625 C.ar    1  UNL1        0.0446
      3 C         141.7253  139.4929  169.9224 C.ar    1  UNL1        0.0348
      4 C         140.8169  140.1170  168.9048 C.ar    1  UNL1        0.1001
      5 N         141.1487  141.4611  168.3274 N.ar    1  UNL1       -0.2422
      6 C         142.3888  142.1810  168.7676 C.ar    1  UNL1        0.1001
      7 C         143.2972  141.5569  169.7851 C.ar    1  UNL1        0.0348
      8 H         143.6560  138.7066  171.7590 H       1  UNL1        0.1424
      9 H         144.6877  140.0613  171.6689 H       1  UNL1        0.1424
@<TRIPOS>BOND
     1     1     2    1
     2     2     3   ar
     3     3     4   ar
     4     4     5   ar
     5     5     6   ar
     6     6     7   ar
     7     7     2   ar
     8     1     8    1
     9     1     9    1
@<TRIPOS>MOLECULE
*****
 9 9 0 0 0
SMALL
GASTEIGER

@<TRIPOS>ATOM
      1 N         139.7161  139.5667  171.1853 N.pl3   1  UNL1       -0.3569
      2 C         139.9641  140.5972  170.1240 C.ar    1  UNL1        0.0446
      3 C         139.9761  140.1972  168.6784 C.ar    1  UNL1        0.0348
      4 C         140.2242  141.2278  167.6171 C.ar    1  UNL1        0.1001
      5 N         140.4601  142.6583  168.0013 N.ar    1  UNL1       -0.2422
      6 C         140.4481  143.0584  169.4469 C.ar    1  UNL1        0.1001
      7 C         140.2001  142.0278  170.5083 C.ar    1  UNL1        0.0348
      8 H         139.5612  138.6277  170.9331 H       1  UNL1        0.1424
      9 H         139.7082  139.8292  172.1341 H       1  UNL1        0.1424
@<TRIPOS>BOND
     1     1     2    1
     2     2     3   ar
     3     3     4   ar
     4     4     5   ar
     5     5     6   ar
     6     6     7   ar
     7     7     2   ar
     8     1     8    1
     9     1     9    1
@<TRIPOS>MOLECULE
*****
 9 9 0 0 0
SMALL
GASTEIGER

@<TRIPOS>ATOM
      1 N         139.9915  139.6977  171.1944 N.pl3   1  UNL1       -0.3569
      2 C         140.9226  140.7536  170.6766 C.ar    1  UNL1        0.0446
      3 C         142.3572  140.4167  170.3965 C.ar    1  UNL1        0.0348
      4 C         143.2883  141.4726  169.8787 C.ar    1  UNL1        0.1001
      5 N         142.7848  142.8654  169.6410 N.ar    1  UNL1       -0.2422
      6 C         141.3503  143.2023  169.9211 C.ar    1  UNL1        0.1001
      7 C         140.4192  142.1464  170.4389 C.ar    1  UNL1        0.0348
      8 H         140.3220  138.7835  171.3504 H       1  UNL1        0.1424
      9 H         139.0500  139.9188  171.3782 H       1  UNL1        0.1424
@<TRIPOS>BOND
     1     1     2    1
     2     2     3   ar
     3     3     4   ar
     4     4     5   ar
     5     5     6   ar
     6     6     7   ar
     7     7     2   ar
     8     1     8    1
     9     1     9    1
@<TRIPOS>MOLECULE
*****
 9 9 0 0 0
SMALL
GASTEIGER

@<TRIPOS>ATOM
      1 N         140.3377  144.4375  170.1707 N.pl3   1  UNL1       -0.3569
      2 C         140.1721  143.0818  169.5504 C.ar    1  UNL1        0.0446
      3 C         140.5829  142.8535  168.1260 C.ar    1  UNL1        0.0348
      4 C         140.4173  141.4978  167.5057 C.ar    1  UNL1        0.1001
      5 N         139.8409  140.3705  168.3099 N.ar    1  UNL1       -0.2422
      6 C         139.4301  140.5987  169.7343 C.ar    1  UNL1        0.1001
      7 C         139.5957  141.9544  170.3546 C.ar    1  UNL1        0.0348
      8 H         140.7160  145.1774  169.6429 H       1  UNL1        0.1424
      9 H         140.0680  144.5873  171.1056 H       1  UNL1        0.1424
@<TRIPOS>BOND
     1     1     2    1
     2     2     3   ar
     3     3     4   ar
     4     4     5   ar
     5     5     6   ar
     6     6     7   ar
     7     7     2   ar
     8     1     8    1
     9     1     9    1
@<TRIPOS>MOLECULE
*****
 9 9 0 0 0
SMALL
GASTEIGER

@<TRIPOS>ATOM
      1 N         140.3391  139.9980  171.4715 N.pl3   1  UNL1       -0.3569
      2 C         140.7390  139.9096  170.0285 C.ar    1  UNL1        0.0446
      3 C         139.7381  140.2115  168.9529 C.ar    1  UNL1        0.0348
      4 C         140.1381  140.1230  167.5100 C.ar    1  UNL1        0.1001
      5 N         141.5389  139.7326  167.1426 N.ar    1  UNL1       -0.2422
      6 C         142.5399  139.4306  168.2181 C.ar    1  UNL1        0.1001
      7 C         142.1399  139.5191  169.6611 C.ar    1  UNL1        0.0348
      8 H         139.4196  140.2543  171.7126 H       1  UNL1        0.1424
      9 H         140.9960  139.7999  172.1775 H       1  UNL1        0.1424
@<TRIPOS>BOND
     1     1     2    1
     2     2     3   ar
     3     3     4   ar
     4     4     5   ar
     5     5     6   ar
     6     6     7   ar
     7     7     2   ar
     8     1     8    1
     9     1     9    1
@<TRIPOS>MOLECULE
*****
 9 9 0 0 0
SMALL
GASTEIGER

@<TRIPOS>ATOM
      1 N         140.0018  144.3414  170.3668 N.pl3   1  UNL1       -0.3569
      2 C         140.9583  143.4544  169.6262 C.ar    1  UNL1        0.0446
      3 C         140.5645  142.8653  168.3042 C.ar    1  UNL1        0.0348
      4 C         141.5209  141.9783  167.5636 C.ar    1  UNL1        0.1001
      5 N         142.8711  141.6804  168.1450 N.ar    1  UNL1       -0.2422
      6 C         143.2649  142.2695  169.4671 C.ar    1  UNL1        0.1001
      7 C         142.3085  143.1565  170.2076 C.ar    1  UNL1        0.0348
      8 H         139.1156  144.5369  169.9851 H       1  UNL1        0.1424
      9 H         140.2603  144.7281  171.2345 H       1  UNL1        0.1424
@<TRIPOS>BOND
     1     1     2    1
     2     2     3   ar
     3     3     4   ar
     4     4     5   ar
     5     5     6   ar
     6     6     7   ar
     7     7     2   ar
     8     1     8    1
     9     1     9    1
