@<TRIPOS>MOLECULE
*****
 37 41 0 0 0
SMALL
GASTEIGER

@<TRIPOS>ATOM
      1 N         140.8584  143.4245  162.6390 N.3     1  UNL1       -0.2750
      2 C         142.0555  142.8183  163.3093 C.3     1  UNL1        0.0737
      3 C         141.8951  142.0760  164.6028 C.3     1  UNL1        0.0374
      4 C         140.5375  141.9400  165.2261 C.3     1  UNL1        0.0800
      5 C         139.3404  142.5462  164.5559 C.3     1  UNL1        0.0374
      6 C         139.5008  143.2884  163.2623 C.3     1  UNL1        0.0737
      7 C         140.3994  145.2423  162.1879 C.3     1  UNL1        0.0161
      8 C         141.0187  144.1668  161.3454 C.3     1  UNL1        0.0487
      9 C         141.5823  142.8335  160.9522 C.3     1  UNL1        0.0362
     10 C         142.0912  142.6160  159.5581 C.3     1  UNL1        0.0951
     11 N         142.0365  143.7319  158.5571 N.am    1  UNL1       -0.2759
     12 C         142.5453  143.5144  157.1629 C.2     1  UNL1        0.2511
     13 O         142.4907  144.6302  156.1620 O.2     1  UNL1       -0.2698
     14 C         141.4729  145.0652  158.9503 C.3     1  UNL1        0.0951
     15 C         140.9640  145.2827  160.3445 C.3     1  UNL1        0.0362
     16 C         143.1090  142.1810  156.7697 C.ar    1  UNL1        0.0868
     17 C         142.2598  141.2004  156.0166 C.ar    1  UNL1        0.1338
     18 CL        140.8470  141.5530  155.6566 Cl      1  UNL1       -0.0756
     19 C         142.8235  139.8670  155.6234 C.ar    1  UNL1        0.3133
     20 N         144.2362  139.5144  155.9834 N.ar    1  UNL1       -0.1504
     21 O         144.7998  138.1811  155.5903 O.co2   1  UNL1       -0.6186
     22 C         145.0854  140.4950  156.7366 C.ar    1  UNL1        0.3133
     23 C         144.5218  141.8284  157.1298 C.ar    1  UNL1        0.1338
     24 CL        145.3709  142.8090  157.8829 Cl      1  UNL1       -0.0756
     25 N         140.3771  141.1976  166.5197 N.pl3   1  UNL1       -0.2872
     26 C         141.0988  141.6669  167.7481 C.ar    1  UNL1        0.0516
     27 C         142.3371  140.9562  168.2080 C.ar    1  UNL1        0.0148
     28 C         143.0587  141.4255  169.4365 C.ar    1  UNL1        0.0013
     29 C         142.5420  142.6054  170.2050 C.ar    1  UNL1        0.0001
     30 C         141.3036  143.3161  169.7452 C.ar    1  UNL1        0.0013
     31 C         140.5820  142.8469  168.5167 C.ar    1  UNL1        0.0148
     32 C         139.4951  139.9861  166.5848 C.ar    1  UNL1        0.0710
     33 C         139.4941  138.9977  165.4566 C.ar    1  UNL1        0.0180
     34 C         138.6121  137.7861  165.5216 C.ar    1  UNL1        0.0220
     35 C         137.7311  137.5630  166.7150 C.ar    1  UNL1        0.0990
     36 N         137.7321  138.5515  167.8433 N.ar    1  UNL1       -0.2410
     37 C         138.6141  139.7630  167.7782 C.ar    1  UNL1        0.1136
@<TRIPOS>UNITY_ATOM_ATTR
20 1
charge 1
21 1
charge -1
@<TRIPOS>BOND
     1     7     8    1
     2     8     1    1
     3     1     2    1
     4     2     3    1
     5     3     4    1
     6     4    25    1
     7    25    26    1
     8    26    27   ar
     9    27    28   ar
    10    28    29   ar
    11    29    30   ar
    12    30    31   ar
    13    25    32    1
    14    32    33   ar
    15    33    34   ar
    16    34    35   ar
    17    35    36   ar
    18    36    37   ar
    19     4     5    1
    20     5     6    1
    21     8     9    1
    22     9    10    1
    23    10    11    1
    24    11    12   am
    25    12    13    2
    26    12    16    1
    27    16    17   ar
    28    17    18    1
    29    17    19   ar
    30    19    20   ar
    31    20    21    1
    32    20    22   ar
    33    22    23   ar
    34    23    24    1
    35    11    14    1
    36    14    15    1
    37    15     8    1
    38     6     1    1
    39    23    16   ar
    40    31    26   ar
    41    37    32   ar
@<TRIPOS>MOLECULE
*****
 37 41 0 0 0
SMALL
GASTEIGER

@<TRIPOS>ATOM
      1 N         142.7279  141.8969  162.7385 N.3     1  UNL1       -0.2750
      2 C         143.0915  140.6568  163.5001 C.3     1  UNL1        0.0737
      3 C         142.5091  140.4148  164.8610 C.3     1  UNL1        0.0374
      4 C         141.5631  141.4127  165.4603 C.3     1  UNL1        0.0800
      5 C         141.1995  142.6528  164.6987 C.3     1  UNL1        0.0374
      6 C         141.7819  142.8948  163.3378 C.3     1  UNL1        0.0737
      7 C         144.2152  143.0025  162.2055 C.3     1  UNL1        0.0161
      8 C         143.3103  142.1390  161.3775 C.3     1  UNL1        0.0487
      9 C         142.2032  141.1914  161.0222 C.3     1  UNL1        0.0362
     10 C         141.9927  140.7859  159.5935 C.3     1  UNL1        0.0951
     11 N         142.8894  141.3279  158.5201 N.am    1  UNL1       -0.2759
     12 C         142.6789  140.9224  157.0914 C.2     1  UNL1        0.2511
     13 O         143.5755  141.4644  156.0180 O.2     1  UNL1       -0.2698
     14 C         143.9965  142.2755  158.8754 C.3     1  UNL1        0.0951
     15 C         144.2070  142.6811  160.3041 C.3     1  UNL1        0.0362
     16 C         141.5717  139.9747  156.7361 C.ar    1  UNL1        0.0868
     17 C         140.2429  140.5077  156.2890 C.ar    1  UNL1        0.1338
     18 CL        140.0210  141.9884  156.1971 Cl      1  UNL1       -0.0756
     19 C         139.1357  139.5601  155.9337 C.ar    1  UNL1        0.3133
     20 N         139.3575  138.0794  156.0256 N.ar    1  UNL1       -0.1504
     21 O         138.2503  137.1318  155.6703 O.co2   1  UNL1       -0.6186
     22 C         140.6863  137.5464  156.4727 C.ar    1  UNL1        0.3133
     23 C         141.7935  138.4940  156.8280 C.ar    1  UNL1        0.1338
     24 CL        143.1223  137.9610  157.2751 Cl      1  UNL1       -0.0756
     25 N         140.9807  141.1706  166.8213 N.pl3   1  UNL1       -0.2872
     26 C         141.5684  141.8530  168.0208 C.ar    1  UNL1        0.0516
     27 C         140.7729  142.8881  168.7595 C.ar    1  UNL1        0.0148
     28 C         141.3607  143.5705  169.9591 C.ar    1  UNL1        0.0013
     29 C         142.7439  143.2177  170.4200 C.ar    1  UNL1        0.0001
     30 C         143.5393  142.1825  169.6812 C.ar    1  UNL1        0.0013
     31 C         142.9516  141.5001  168.4817 C.ar    1  UNL1        0.0148
     32 C         139.8105  140.2460  166.9827 C.ar    1  UNL1        0.0710
     33 C         139.2405  139.5420  165.7872 C.ar    1  UNL1        0.0180
     34 C         138.0703  138.6175  165.9485 C.ar    1  UNL1        0.0220
     35 C         137.4703  138.3970  167.3054 C.ar    1  UNL1        0.0990
     36 N         138.0403  139.1010  168.5011 N.ar    1  UNL1       -0.2410
     37 C         139.2105  140.0255  168.3397 C.ar    1  UNL1        0.1136
@<TRIPOS>UNITY_ATOM_ATTR
20 1
charge 1
21 1
charge -1
@<TRIPOS>BOND
     1     7     8    1
     2     8     1    1
     3     1     2    1
     4     2     3    1
     5     3     4    1
     6     4    25    1
     7    25    26    1
     8    26    27   ar
     9    27    28   ar
    10    28    29   ar
    11    29    30   ar
    12    30    31   ar
    13    25    32    1
    14    32    33   ar
    15    33    34   ar
    16    34    35   ar
    17    35    36   ar
    18    36    37   ar
    19     4     5    1
    20     5     6    1
    21     8     9    1
    22     9    10    1
    23    10    11    1
    24    11    12   am
    25    12    13    2
    26    12    16    1
    27    16    17   ar
    28    17    18    1
    29    17    19   ar
    30    19    20   ar
    31    20    21    1
    32    20    22   ar
    33    22    23   ar
    34    23    24    1
    35    11    14    1
    36    14    15    1
    37    15     8    1
    38     6     1    1
    39    23    16   ar
    40    31    26   ar
    41    37    32   ar
@<TRIPOS>MOLECULE
*****
 37 41 0 0 0
SMALL
GASTEIGER

@<TRIPOS>ATOM
      1 N         143.0586  141.9343  162.7458 N.3     1  UNL1       -0.2750
      2 C         143.3413  140.6644  163.4923 C.3     1  UNL1        0.0737
      3 C         142.6958  140.4175  164.8236 C.3     1  UNL1        0.0374
      4 C         141.7677  141.4405  165.4083 C.3     1  UNL1        0.0800
      5 C         141.4849  142.7104  164.6618 C.3     1  UNL1        0.0374
      6 C         142.1304  142.9573  163.3305 C.3     1  UNL1        0.0737
      7 C         144.9211  141.9051  162.2468 C.3     1  UNL1        0.0161
      8 C         143.7041  142.1813  161.4144 C.3     1  UNL1        0.0487
      9 C         142.2630  142.3717  161.0445 C.3     1  UNL1        0.0362
     10 C         141.8900  142.7131  159.6323 C.3     1  UNL1        0.0951
     11 N         142.9582  142.8641  158.5901 N.am    1  UNL1       -0.2759
     12 C         142.5852  143.2056  157.1779 C.2     1  UNL1        0.2511
     13 O         143.6533  143.3566  156.1356 O.2     1  UNL1       -0.2698
     14 C         144.3993  142.6738  158.9600 C.3     1  UNL1        0.0951
     15 C         144.7723  142.3323  160.3722 C.3     1  UNL1        0.0362
     16 C         141.1440  143.3960  156.8079 C.ar    1  UNL1        0.0868
     17 C         140.2862  142.2058  156.4959 C.ar    1  UNL1        0.1338
     18 CL        140.8695  140.8249  156.5538 Cl      1  UNL1       -0.0756
     19 C         138.8450  142.3961  156.1260 C.ar    1  UNL1        0.3133
     20 N         138.2618  143.7769  156.0681 N.ar    1  UNL1       -0.1504
     21 O         136.8206  143.9672  155.6982 O.co2   1  UNL1       -0.6186
     22 C         139.1195  144.9672  156.3801 C.ar    1  UNL1        0.3133
     23 C         140.5607  144.7768  156.7501 C.ar    1  UNL1        0.1338
     24 CL        141.4185  145.9670  157.0621 Cl      1  UNL1       -0.0756
     25 N         141.1221  141.1935  166.7397 N.pl3   1  UNL1       -0.2872
     26 C         141.6593  141.8637  167.9694 C.ar    1  UNL1        0.0516
     27 C         140.8220  142.8704  168.7013 C.ar    1  UNL1        0.0148
     28 C         141.3592  143.5405  169.9311 C.ar    1  UNL1        0.0013
     29 C         142.7335  143.2040  170.4290 C.ar    1  UNL1        0.0001
     30 C         143.5707  142.1973  169.6972 C.ar    1  UNL1        0.0013
     31 C         143.0336  141.5271  168.4674 C.ar    1  UNL1        0.0148
     32 C         139.9395  140.2764  166.8412 C.ar    1  UNL1        0.0710
     33 C         139.3759  139.6397  165.6055 C.ar    1  UNL1        0.0180
     34 C         138.1933  138.7226  165.7070 C.ar    1  UNL1        0.0220
     35 C         137.5743  138.4421  167.0441 C.ar    1  UNL1        0.0990
     36 N         138.1379  139.0787  168.2799 N.ar    1  UNL1       -0.2410
     37 C         139.3206  139.9959  168.1785 C.ar    1  UNL1        0.1136
@<TRIPOS>UNITY_ATOM_ATTR
20 1
charge 1
21 1
charge -1
@<TRIPOS>BOND
     1     7     8    1
     2     8     1    1
     3     1     2    1
     4     2     3    1
     5     3     4    1
     6     4    25    1
     7    25    26    1
     8    26    27   ar
     9    27    28   ar
    10    28    29   ar
    11    29    30   ar
    12    30    31   ar
    13    25    32    1
    14    32    33   ar
    15    33    34   ar
    16    34    35   ar
    17    35    36   ar
    18    36    37   ar
    19     4     5    1
    20     5     6    1
    21     8     9    1
    22     9    10    1
    23    10    11    1
    24    11    12   am
    25    12    13    2
    26    12    16    1
    27    16    17   ar
    28    17    18    1
    29    17    19   ar
    30    19    20   ar
    31    20    21    1
    32    20    22   ar
    33    22    23   ar
    34    23    24    1
    35    11    14    1
    36    14    15    1
    37    15     8    1
    38     6     1    1
    39    23    16   ar
    40    31    26   ar
    41    37    32   ar
@<TRIPOS>MOLECULE
*****
 37 41 0 0 0
SMALL
GASTEIGER

@<TRIPOS>ATOM
      1 N         140.1406  138.9512  163.0954 N.3     1  UNL1       -0.2750
      2 C         141.2887  138.0362  162.7878 C.3     1  UNL1        0.0737
      3 C         141.9869  138.1281  161.4634 C.3     1  UNL1        0.0374
      4 C         141.5371  139.1350  160.4467 C.3     1  UNL1        0.0800
      5 C         140.3890  140.0500  160.7543 C.3     1  UNL1        0.0374
      6 C         139.6908  139.9581  162.0787 C.3     1  UNL1        0.0737
      7 C         138.4606  138.1242  163.5561 C.3     1  UNL1        0.0161
      8 C         139.4423  138.8593  164.4198 C.3     1  UNL1        0.0487
      9 C         140.6665  139.6262  164.8235 C.3     1  UNL1        0.0362
     10 C         140.8515  140.0460  166.2517 C.3     1  UNL1        0.0951
     11 N         139.8122  139.6988  167.2761 N.am    1  UNL1       -0.2759
     12 C         139.9972  140.1186  168.7042 C.2     1  UNL1        0.2511
     13 O         138.9580  139.7714  169.7286 O.2     1  UNL1       -0.2698
     14 C         138.5880  138.9318  166.8724 C.3     1  UNL1        0.0951
     15 C         138.4030  138.5120  165.4443 C.3     1  UNL1        0.0362
     16 C         141.2215  140.8856  169.1079 C.ar    1  UNL1        0.0868
     17 C         141.2742  142.3717  168.9115 C.ar    1  UNL1        0.1338
     18 CL        140.1026  143.0910  168.3113 Cl      1  UNL1       -0.0756
     19 C         142.4985  143.1387  169.3151 C.ar    1  UNL1        0.3133
     20 N         143.6700  142.4194  169.9153 N.ar    1  UNL1       -0.1504
     21 O         144.8943  143.1864  170.3190 O.co2   1  UNL1       -0.6186
     22 C         143.6173  140.9333  170.1118 C.ar    1  UNL1        0.3133
     23 C         142.3931  140.1663  169.7081 C.ar    1  UNL1        0.1338
     24 CL        142.3403  138.6803  169.9045 Cl      1  UNL1       -0.0756
     25 N         142.2354  139.2269  159.1223 N.pl3   1  UNL1       -0.2872
     26 C         141.9671  138.2022  158.0603 C.ar    1  UNL1        0.0516
     27 C         140.7765  138.3492  157.1599 C.ar    1  UNL1        0.0148
     28 C         140.5082  137.3244  156.0979 C.ar    1  UNL1        0.0013
     29 C         141.4307  136.1526  155.9362 C.ar    1  UNL1        0.0001
     30 C         142.6213  136.0057  156.8366 C.ar    1  UNL1        0.0013
     31 C         142.8896  137.0304  157.8986 C.ar    1  UNL1        0.0148
     32 C         143.2020  140.3436  158.8600 C.ar    1  UNL1        0.0710
     33 C         143.7306  140.5680  157.4743 C.ar    1  UNL1        0.0180
     34 C         144.6972  141.6846  157.2120 C.ar    1  UNL1        0.0220
     35 C         145.1351  142.5770  158.3353 C.ar    1  UNL1        0.0990
     36 N         144.6064  142.3526  159.7211 N.ar    1  UNL1       -0.2410
     37 C         143.6398  141.2360  159.9834 C.ar    1  UNL1        0.1136
@<TRIPOS>UNITY_ATOM_ATTR
20 1
charge 1
21 1
charge -1
@<TRIPOS>BOND
     1     7     8    1
     2     8     1    1
     3     1     2    1
     4     2     3    1
     5     3     4    1
     6     4    25    1
     7    25    26    1
     8    26    27   ar
     9    27    28   ar
    10    28    29   ar
    11    29    30   ar
    12    30    31   ar
    13    25    32    1
    14    32    33   ar
    15    33    34   ar
    16    34    35   ar
    17    35    36   ar
    18    36    37   ar
    19     4     5    1
    20     5     6    1
    21     8     9    1
    22     9    10    1
    23    10    11    1
    24    11    12   am
    25    12    13    2
    26    12    16    1
    27    16    17   ar
    28    17    18    1
    29    17    19   ar
    30    19    20   ar
    31    20    21    1
    32    20    22   ar
    33    22    23   ar
    34    23    24    1
    35    11    14    1
    36    14    15    1
    37    15     8    1
    38     6     1    1
    39    23    16   ar
    40    31    26   ar
    41    37    32   ar
@<TRIPOS>MOLECULE
*****
 37 41 0 0 0
SMALL
GASTEIGER

@<TRIPOS>ATOM
      1 N         140.7671  143.3138  162.6371 N.3     1  UNL1       -0.2750
      2 C         141.9567  142.7810  163.3793 C.3     1  UNL1        0.0737
      3 C         141.7629  142.0017  164.6462 C.3     1  UNL1        0.0374
      4 C         140.3794  141.7552  165.1709 C.3     1  UNL1        0.0800
      5 C         139.1898  142.2880  164.4287 C.3     1  UNL1        0.0374
      6 C         139.3837  143.0673  163.1618 C.3     1  UNL1        0.0737
      7 C         140.3296  145.1473  162.2304 C.3     1  UNL1        0.0161
      8 C         140.9609  144.0931  161.3701 C.3     1  UNL1        0.0487
      9 C         141.5249  142.7683  160.9499 C.3     1  UNL1        0.0362
     10 C         142.0635  142.5888  159.5614 C.3     1  UNL1        0.0951
     11 N         142.0380  143.7343  158.5933 N.am    1  UNL1       -0.2759
     12 C         142.5766  143.5549  157.2048 C.2     1  UNL1        0.2511
     13 O         142.5511  144.7002  156.2367 O.2     1  UNL1       -0.2698
     14 C         141.4740  145.0591  159.0135 C.3     1  UNL1        0.0951
     15 C         140.9355  145.2386  160.4019 C.3     1  UNL1        0.0362
     16 C         143.1406  142.2300  156.7846 C.ar    1  UNL1        0.0868
     17 C         142.3042  141.2800  155.9798 C.ar    1  UNL1        0.1338
     18 CL        140.9036  141.6548  155.5951 Cl      1  UNL1       -0.0756
     19 C         142.8682  139.9551  155.5595 C.ar    1  UNL1        0.3133
     20 N         144.2688  139.5803  155.9442 N.ar    1  UNL1       -0.1504
     21 O         144.8328  138.2554  155.5239 O.co2   1  UNL1       -0.6186
     22 C         145.1053  140.5302  156.7490 C.ar    1  UNL1        0.3133
     23 C         144.5413  141.8552  157.1693 C.ar    1  UNL1        0.1338
     24 CL        145.3777  142.8051  157.9741 Cl      1  UNL1       -0.0756
     25 N         140.1856  140.9759  166.4379 N.pl3   1  UNL1       -0.2872
     26 C         139.3700  139.7171  166.4268 C.ar    1  UNL1        0.0516
     27 C         138.2991  139.5082  167.4561 C.ar    1  UNL1        0.0148
     28 C         137.4835  138.2493  167.4450 C.ar    1  UNL1        0.0013
     29 C         137.7389  137.1994  166.4046 C.ar    1  UNL1        0.0001
     30 C         138.8098  137.4083  165.3754 C.ar    1  UNL1        0.0013
     31 C         139.6254  138.6671  165.3864 C.ar    1  UNL1        0.0148
     32 C         140.8075  141.4555  167.7160 C.ar    1  UNL1        0.0710
     33 C         140.4164  142.7862  168.2871 C.ar    1  UNL1        0.0180
     34 C         141.0383  143.2658  169.5652 C.ar    1  UNL1        0.0220
     35 C         142.0511  142.4146  170.2720 C.ar    1  UNL1        0.0990
     36 N         142.4421  141.0838  169.7008 N.ar    1  UNL1       -0.2410
     37 C         141.8203  140.6043  168.4228 C.ar    1  UNL1        0.1136
@<TRIPOS>UNITY_ATOM_ATTR
20 1
charge 1
21 1
charge -1
@<TRIPOS>BOND
     1     7     8    1
     2     8     1    1
     3     1     2    1
     4     2     3    1
     5     3     4    1
     6     4    25    1
     7    25    26    1
     8    26    27   ar
     9    27    28   ar
    10    28    29   ar
    11    29    30   ar
    12    30    31   ar
    13    25    32    1
    14    32    33   ar
    15    33    34   ar
    16    34    35   ar
    17    35    36   ar
    18    36    37   ar
    19     4     5    1
    20     5     6    1
    21     8     9    1
    22     9    10    1
    23    10    11    1
    24    11    12   am
    25    12    13    2
    26    12    16    1
    27    16    17   ar
    28    17    18    1
    29    17    19   ar
    30    19    20   ar
    31    20    21    1
    32    20    22   ar
    33    22    23   ar
    34    23    24    1
    35    11    14    1
    36    14    15    1
    37    15     8    1
    38     6     1    1
    39    23    16   ar
    40    31    26   ar
    41    37    32   ar
@<TRIPOS>MOLECULE
*****
 37 41 0 0 0
SMALL
GASTEIGER

@<TRIPOS>ATOM
      1 N         140.1330  138.9460  163.0957 N.3     1  UNL1       -0.2750
      2 C         141.1934  137.9467  162.7394 C.3     1  UNL1        0.0737
      3 C         141.8936  138.0360  161.4159 C.3     1  UNL1        0.0374
      4 C         141.5334  139.1245  160.4487 C.3     1  UNL1        0.0800
      5 C         140.4730  140.1238  160.8051 C.3     1  UNL1        0.0374
      6 C         139.7728  140.0345  162.1286 C.3     1  UNL1        0.0737
      7 C         138.4516  138.1211  163.5553 C.3     1  UNL1        0.0161
      8 C         139.4328  138.8567  164.4193 C.3     1  UNL1        0.0487
      9 C         140.6570  139.6233  164.8235 C.3     1  UNL1        0.0362
     10 C         140.8404  140.0451  166.2512 C.3     1  UNL1        0.0951
     11 N         139.7993  139.7004  167.2747 N.am    1  UNL1       -0.2759
     12 C         139.9827  140.1223  168.7025 C.2     1  UNL1        0.2511
     13 O         138.9417  139.7776  169.7259 O.2     1  UNL1       -0.2698
     14 C         138.5751  138.9338  166.8705 C.3     1  UNL1        0.0951
     15 C         138.3917  138.5120  165.4428 C.3     1  UNL1        0.0362
     16 C         141.2070  140.8889  169.1067 C.ar    1  UNL1        0.0868
     17 C         141.2618  142.3744  168.9067 C.ar    1  UNL1        0.1338
     18 CL        140.0922  143.0935  168.3025 Cl      1  UNL1       -0.0756
     19 C         142.4862  143.1410  169.3110 C.ar    1  UNL1        0.3133
     20 N         143.6557  142.4218  169.9152 N.ar    1  UNL1       -0.1504
     21 O         144.8800  143.1884  170.3194 O.co2   1  UNL1       -0.6186
     22 C         143.6009  140.9363  170.1152 C.ar    1  UNL1        0.3133
     23 C         142.3766  140.1697  169.7109 C.ar    1  UNL1        0.1338
     24 CL        142.3218  138.6842  169.9109 Cl      1  UNL1       -0.0756
     25 N         142.2337  139.2138  159.1251 N.pl3   1  UNL1       -0.2872
     26 C         143.2109  140.3221  158.8669 C.ar    1  UNL1        0.0516
     27 C         143.5522  141.2909  159.9600 C.ar    1  UNL1        0.0148
     28 C         144.5294  142.3993  159.7016 C.ar    1  UNL1        0.0013
     29 C         145.1652  142.5388  158.3503 C.ar    1  UNL1        0.0001
     30 C         144.8239  141.5699  157.2572 C.ar    1  UNL1        0.0013
     31 C         143.8467  140.4616  157.5154 C.ar    1  UNL1        0.0148
     32 C         141.9567  138.1947  158.0599 C.ar    1  UNL1        0.0710
     33 C         140.7763  138.3628  157.1499 C.ar    1  UNL1        0.0180
     34 C         140.4993  137.3437  156.0846 C.ar    1  UNL1        0.0220
     35 C         141.4028  136.1564  155.9295 C.ar    1  UNL1        0.0990
     36 N         142.5833  135.9883  156.8395 N.ar    1  UNL1       -0.2410
     37 C         142.8603  137.0074  157.9048 C.ar    1  UNL1        0.1136
@<TRIPOS>UNITY_ATOM_ATTR
20 1
charge 1
21 1
charge -1
@<TRIPOS>BOND
     1     7     8    1
     2     8     1    1
     3     1     2    1
     4     2     3    1
     5     3     4    1
     6     4    25    1
     7    25    26    1
     8    26    27   ar
     9    27    28   ar
    10    28    29   ar
    11    29    30   ar
    12    30    31   ar
    13    25    32    1
    14    32    33   ar
    15    33    34   ar
    16    34    35   ar
    17    35    36   ar
    18    36    37   ar
    19     4     5    1
    20     5     6    1
    21     8     9    1
    22     9    10    1
    23    10    11    1
    24    11    12   am
    25    12    13    2
    26    12    16    1
    27    16    17   ar
    28    17    18    1
    29    17    19   ar
    30    19    20   ar
    31    20    21    1
    32    20    22   ar
    33    22    23   ar
    34    23    24    1
    35    11    14    1
    36    14    15    1
    37    15     8    1
    38     6     1    1
    39    23    16   ar
    40    31    26   ar
    41    37    32   ar
@<TRIPOS>MOLECULE
*****
 37 41 0 0 0
SMALL
GASTEIGER

@<TRIPOS>ATOM
      1 N         143.5209  140.2728  163.0325 N.3     1  UNL1       -0.2750
      2 C         144.6032  141.2170  162.6000 C.3     1  UNL1        0.0737
      3 C         144.4799  141.9540  161.2994 C.3     1  UNL1        0.0374
      4 C         143.2743  141.7467  160.4313 C.3     1  UNL1        0.0800
      5 C         142.1920  140.8025  160.8638 C.3     1  UNL1        0.0374
      6 C         142.3153  140.0656  162.1644 C.3     1  UNL1        0.0737
      7 C         144.3081  138.5542  163.4136 C.3     1  UNL1        0.0161
      8 C         143.6441  139.5358  164.3332 C.3     1  UNL1        0.0487
      9 C         142.9373  140.7733  164.8010 C.3     1  UNL1        0.0362
     10 C         142.5843  140.9329  166.2501 C.3     1  UNL1        0.0951
     11 N         142.9382  139.8550  167.2314 N.am    1  UNL1       -0.2759
     12 C         142.5852  140.0146  168.6805 C.2     1  UNL1        0.2511
     13 O         142.9391  138.9367  169.6618 O.2     1  UNL1       -0.2698
     14 C         143.6450  138.6175  166.7636 C.3     1  UNL1        0.0951
     15 C         143.9980  138.4578  165.3145 C.3     1  UNL1        0.0362
     16 C         141.8784  141.2522  169.1483 C.ar    1  UNL1        0.0868
     17 C         140.3836  141.3403  169.0617 C.ar    1  UNL1        0.1338
     18 CL        139.5954  140.1908  168.5071 Cl      1  UNL1       -0.0756
     19 C         139.6768  142.5779  169.5295 C.ar    1  UNL1        0.3133
     20 N         140.4649  143.7274  170.0840 N.ar    1  UNL1       -0.1504
     21 O         139.7581  144.9650  170.5518 O.co2   1  UNL1       -0.6186
     22 C         141.9598  143.6393  170.1707 C.ar    1  UNL1        0.3133
     23 C         142.6666  142.4017  169.7029 C.ar    1  UNL1        0.1338
     24 CL        144.1614  142.3136  169.7896 Cl      1  UNL1       -0.0756
     25 N         143.1511  142.4838  159.1306 N.pl3   1  UNL1       -0.2872
     26 C         143.9943  142.0807  157.9574 C.ar    1  UNL1        0.0516
     27 C         145.4036  142.5807  157.8396 C.ar    1  UNL1        0.0148
     28 C         146.2468  142.1777  156.6663 C.ar    1  UNL1        0.0013
     29 C         145.6807  141.2746  155.6108 C.ar    1  UNL1        0.0001
     30 C         144.2714  140.7746  155.7286 C.ar    1  UNL1        0.0013
     31 C         143.4282  141.1776  156.9019 C.ar    1  UNL1        0.0148
     32 C         142.1846  143.6238  159.0033 C.ar    1  UNL1        0.0710
     33 C         142.3946  144.6710  157.9501 C.ar    1  UNL1        0.0180
     34 C         141.4282  145.8111  157.8227 C.ar    1  UNL1        0.0220
     35 C         140.2517  145.9039  158.7486 C.ar    1  UNL1        0.0990
     36 N         140.0416  144.8567  159.8018 N.ar    1  UNL1       -0.2410
     37 C         141.0081  143.7166  159.9292 C.ar    1  UNL1        0.1136
@<TRIPOS>UNITY_ATOM_ATTR
20 1
charge 1
21 1
charge -1
@<TRIPOS>BOND
     1     7     8    1
     2     8     1    1
     3     1     2    1
     4     2     3    1
     5     3     4    1
     6     4    25    1
     7    25    26    1
     8    26    27   ar
     9    27    28   ar
    10    28    29   ar
    11    29    30   ar
    12    30    31   ar
    13    25    32    1
    14    32    33   ar
    15    33    34   ar
    16    34    35   ar
    17    35    36   ar
    18    36    37   ar
    19     4     5    1
    20     5     6    1
    21     8     9    1
    22     9    10    1
    23    10    11    1
    24    11    12   am
    25    12    13    2
    26    12    16    1
    27    16    17   ar
    28    17    18    1
    29    17    19   ar
    30    19    20   ar
    31    20    21    1
    32    20    22   ar
    33    22    23   ar
    34    23    24    1
    35    11    14    1
    36    14    15    1
    37    15     8    1
    38     6     1    1
    39    23    16   ar
    40    31    26   ar
    41    37    32   ar
@<TRIPOS>MOLECULE
*****
 37 41 0 0 0
SMALL
GASTEIGER

@<TRIPOS>ATOM
      1 N         140.2701  143.6016  162.6629 N.3     1  UNL1       -0.2750
      2 C         141.3535  142.6005  162.9347 C.3     1  UNL1        0.0737
      3 C         141.3264  141.7900  164.1966 C.3     1  UNL1        0.0374
      4 C         140.2159  141.9807  165.1867 C.3     1  UNL1        0.0800
      5 C         139.1325  142.9819  164.9149 C.3     1  UNL1        0.0374
      6 C         139.1596  143.7923  163.6530 C.3     1  UNL1        0.0737
      7 C         140.5472  145.4932  162.4103 C.3     1  UNL1        0.0161
      8 C         140.2972  144.4121  161.4010 C.3     1  UNL1        0.0487
      9 C         140.0378  143.0496  160.8299 C.3     1  UNL1        0.0362
     10 C         139.8923  142.8730  159.3474 C.3     1  UNL1        0.0951
     11 N         140.0063  144.0590  158.4361 N.am    1  UNL1       -0.2759
     12 C         139.8608  143.8824  156.9537 C.2     1  UNL1        0.2511
     13 O         139.9747  145.0683  156.0423 O.2     1  UNL1       -0.2698
     14 C         140.2657  145.4215  159.0072 C.3     1  UNL1        0.0951
     15 C         140.4112  145.5981  160.4896 C.3     1  UNL1        0.0362
     16 C         139.6014  142.5198  156.3826 C.ar    1  UNL1        0.0868
     17 C         138.1959  142.0825  156.0942 C.ar    1  UNL1        0.1338
     18 CL        137.0495  143.0079  156.3769 Cl      1  UNL1       -0.0756
     19 C         137.9365  140.7199  155.5231 C.ar    1  UNL1        0.3133
     20 N         139.0827  139.7947  155.2404 N.ar    1  UNL1       -0.1504
     21 O         138.8233  138.4321  154.6694 O.co2   1  UNL1       -0.6186
     22 C         140.4883  140.2318  155.5288 C.ar    1  UNL1        0.3133
     23 C         140.7477  141.5945  156.0999 C.ar    1  UNL1        0.1338
     24 CL        142.1532  142.0317  156.3882 Cl      1  UNL1       -0.0756
     25 N         140.1888  141.1702  166.4486 N.pl3   1  UNL1       -0.2872
     26 C         140.9815  141.6140  167.6421 C.ar    1  UNL1        0.0516
     27 C         142.2564  140.9091  168.0000 C.ar    1  UNL1        0.0148
     28 C         143.0491  141.3529  169.1936 C.ar    1  UNL1        0.0013
     29 C         142.5671  142.5015  170.0293 C.ar    1  UNL1        0.0001
     30 C         141.2923  143.2063  169.6714 C.ar    1  UNL1        0.0013
     31 C         140.4995  142.7626  168.4779 C.ar    1  UNL1        0.0148
     32 C         139.3689  139.9160  166.5169 C.ar    1  UNL1        0.0710
     33 C         139.4504  138.9055  165.4114 C.ar    1  UNL1        0.0180
     34 C         138.6305  137.6513  165.4797 C.ar    1  UNL1        0.0220
     35 C         137.7291  137.4075  166.6536 C.ar    1  UNL1        0.0990
     36 N         137.6475  138.4180  167.7592 N.ar    1  UNL1       -0.2410
     37 C         138.4674  139.6723  167.6909 C.ar    1  UNL1        0.1136
@<TRIPOS>UNITY_ATOM_ATTR
20 1
charge 1
21 1
charge -1
@<TRIPOS>BOND
     1     7     8    1
     2     8     1    1
     3     1     2    1
     4     2     3    1
     5     3     4    1
     6     4    25    1
     7    25    26    1
     8    26    27   ar
     9    27    28   ar
    10    28    29   ar
    11    29    30   ar
    12    30    31   ar
    13    25    32    1
    14    32    33   ar
    15    33    34   ar
    16    34    35   ar
    17    35    36   ar
    18    36    37   ar
    19     4     5    1
    20     5     6    1
    21     8     9    1
    22     9    10    1
    23    10    11    1
    24    11    12   am
    25    12    13    2
    26    12    16    1
    27    16    17   ar
    28    17    18    1
    29    17    19   ar
    30    19    20   ar
    31    20    21    1
    32    20    22   ar
    33    22    23   ar
    34    23    24    1
    35    11    14    1
    36    14    15    1
    37    15     8    1
    38     6     1    1
    39    23    16   ar
    40    31    26   ar
    41    37    32   ar
@<TRIPOS>MOLECULE
*****
 37 41 0 0 0
SMALL
GASTEIGER

@<TRIPOS>ATOM
      1 N         140.2377  143.6403  162.3487 N.3     1  UNL1       -0.2750
      2 C         138.9742  143.4967  163.1442 C.3     1  UNL1        0.0737
      3 C         138.9630  142.6609  164.3896 C.3     1  UNL1        0.0374
      4 C         140.2153  141.9685  164.8396 C.3     1  UNL1        0.0800
      5 C         141.4788  142.1121  164.0441 C.3     1  UNL1        0.0374
      6 C         141.4900  142.9479  162.7986 C.3     1  UNL1        0.0737
      7 C         140.5175  145.5357  162.1305 C.3     1  UNL1        0.0161
      8 C         140.2490  144.4762  161.1032 C.3     1  UNL1        0.0487
      9 C         139.9765  143.1264  160.5085 C.3     1  UNL1        0.0362
     10 C         139.8086  142.9804  159.0251 C.3     1  UNL1        0.0951
     11 N         139.9132  144.1843  158.1364 N.am    1  UNL1       -0.2759
     12 C         139.7453  144.0383  156.6530 C.2     1  UNL1        0.2511
     13 O         139.8498  145.2421  155.7643 O.2     1  UNL1       -0.2698
     14 C         140.1856  145.5341  158.7311 C.3     1  UNL1        0.0951
     15 C         140.3535  145.6801  160.2145 C.3     1  UNL1        0.0362
     16 C         139.4728  142.6884  156.0583 C.ar    1  UNL1        0.0868
     17 C         138.0618  142.2621  155.7806 C.ar    1  UNL1        0.1338
     18 CL        136.9230  143.1856  156.0975 Cl      1  UNL1       -0.0756
     19 C         137.7894  140.9122  155.1859 C.ar    1  UNL1        0.3133
     20 N         138.9281  139.9887  154.8690 N.ar    1  UNL1       -0.1504
     21 O         138.6556  138.6388  154.2743 O.co2   1  UNL1       -0.6186
     22 C         140.3391  140.4149  155.1467 C.ar    1  UNL1        0.3133
     23 C         140.6116  141.7648  155.7414 C.ar    1  UNL1        0.1338
     24 CL        142.0225  142.1911  156.0191 Cl      1  UNL1       -0.0756
     25 N         140.2040  141.1326  166.0851 N.pl3   1  UNL1       -0.2872
     26 C         139.4605  139.8301  166.1074 C.ar    1  UNL1        0.0516
     27 C         139.7920  138.7601  165.1099 C.ar    1  UNL1        0.0148
     28 C         139.0485  137.4574  165.1323 C.ar    1  UNL1        0.0013
     29 C         137.9735  137.2249  166.1522 C.ar    1  UNL1        0.0001
     30 C         137.6420  138.2950  167.1497 C.ar    1  UNL1        0.0013
     31 C         138.3855  139.5975  167.1274 C.ar    1  UNL1        0.0148
     32 C         140.9363  141.5994  167.3082 C.ar    1  UNL1        0.0710
     33 C         140.3475  142.6774  168.1690 C.ar    1  UNL1        0.0180
     34 C         141.0798  143.1442  169.3921 C.ar    1  UNL1        0.0220
     35 C         142.4007  142.5328  169.7544 C.ar    1  UNL1        0.0990
     36 N         142.9895  141.4547  168.8935 N.ar    1  UNL1       -0.2410
     37 C         142.2573  140.9880  167.6704 C.ar    1  UNL1        0.1136
@<TRIPOS>UNITY_ATOM_ATTR
20 1
charge 1
21 1
charge -1
@<TRIPOS>BOND
     1     7     8    1
     2     8     1    1
     3     1     2    1
     4     2     3    1
     5     3     4    1
     6     4    25    1
     7    25    26    1
     8    26    27   ar
     9    27    28   ar
    10    28    29   ar
    11    29    30   ar
    12    30    31   ar
    13    25    32    1
    14    32    33   ar
    15    33    34   ar
    16    34    35   ar
    17    35    36   ar
    18    36    37   ar
    19     4     5    1
    20     5     6    1
    21     8     9    1
    22     9    10    1
    23    10    11    1
    24    11    12   am
    25    12    13    2
    26    12    16    1
    27    16    17   ar
    28    17    18    1
    29    17    19   ar
    30    19    20   ar
    31    20    21    1
    32    20    22   ar
    33    22    23   ar
    34    23    24    1
    35    11    14    1
    36    14    15    1
    37    15     8    1
    38     6     1    1
    39    23    16   ar
    40    31    26   ar
    41    37    32   ar
