@<TRIPOS>MOLECULE
*****
 40 44 0 0 0
SMALL
GASTEIGER

@<TRIPOS>ATOM
      1 N         139.9433  141.4669  163.3764 N.3     1  UNL1       -0.2671
      2 C         141.1985  141.1767  162.6084 C.3     1  UNL1        0.0899
      3 C         141.5030  141.9392  161.3530 C.3     1  UNL1        0.0896
      4 N         140.5521  142.9919  160.8656 N.3     1  UNL1       -0.2728
      5 C         139.2967  143.2821  161.6335 C.3     1  UNL1        0.0882
      6 C         138.9923  142.5197  162.8889 C.3     1  UNL1        0.0739
      7 C         137.7369  142.8100  163.6569 C.3     1  UNL1        0.0188
      8 C         138.9692  139.3645  164.7090 C.3     1  UNL1        0.1382
      9 C         138.8671  138.9801  166.1553 C.3     1  UNL1        0.0573
     10 C         139.4736  140.0826  166.9719 C.ar    1  UNL1       -0.0224
     11 C         139.6531  140.2536  168.4513 C.ar    1  UNL1       -0.0006
     12 C         140.3096  141.4905  168.9890 C.ar    1  UNL1        0.0711
     13 C         140.7865  142.5563  168.0473 C.ar    1  UNL1        0.0036
     14 C         140.6070  142.3852  166.5680 C.ar    1  UNL1       -0.0033
     15 C         139.9505  141.1483  166.0303 C.ar    1  UNL1       -0.0093
     16 C         139.6388  140.7045  164.6318 C.3     1  UNL1        0.1077
     17 C         140.4892  141.6617  170.4684 C.3     1  UNL1        0.4186
     18 F         140.6688  141.8328  171.9477 F       1  UNL1       -0.1659
     19 F         141.7417  140.8383  170.4115 F       1  UNL1       -0.1659
     20 F         139.2367  142.4850  170.5252 F       1  UNL1       -0.1659
     21 O         138.4866  138.5516  163.5445 O.3     1  UNL1       -0.3542
     22 C         140.7417  137.2724  163.3777 C.3     1  UNL1        0.0346
     23 C         139.4571  137.7277  162.7513 C.3     1  UNL1        0.1422
     24 C         140.8565  143.7543  159.6101 C.3     1  UNL1        0.0488
     25 C         142.1236  143.9961  160.3756 C.3     1  UNL1        0.0161
     26 C         139.4836  143.2476  159.2808 C.3     1  UNL1        0.0362
     27 C         138.8552  143.5873  157.9618 C.3     1  UNL1        0.0951
     28 N         139.5997  144.4338  156.9722 N.am    1  UNL1       -0.2759
     29 C         138.9713  144.7735  155.6533 C.2     1  UNL1        0.2513
     30 O         137.5984  144.2669  155.3238 O.2     1  UNL1       -0.2698
     31 C         140.9726  144.9404  157.3016 C.3     1  UNL1        0.0951
     32 C         141.6010  144.6007  158.6205 C.3     1  UNL1        0.0362
     33 C         139.7158  145.6200  154.6636 C.ar    1  UNL1        0.0807
     34 C         139.6564  147.1156  154.7614 C.ar    1  UNL1        0.0666
     35 C         138.8525  147.7648  155.8487 C.3     1  UNL1        0.0523
     36 N         140.4008  147.9621  153.7718 N.ar    1  UNL1       -0.2282
     37 C         141.2047  147.3129  152.6844 C.ar    1  UNL1        0.1982
     38 N         141.2641  145.8173  152.5867 N.ar    1  UNL1       -0.2282
     39 C         140.5197  144.9708  153.5762 C.ar    1  UNL1        0.0666
     40 C         140.5792  143.4752  153.4785 C.3     1  UNL1        0.0523
@<TRIPOS>BOND
     1    22    23    1
     2    23    21    1
     3     8    21    1
     4     8     9    1
     5     9    10    1
     6    10    11   ar
     7    11    12   ar
     8    12    17    1
     9    17    18    1
    10    17    19    1
    11    17    20    1
    12    12    13   ar
    13    13    14   ar
    14    14    15   ar
    15    15    16    1
    16    16     1    1
    17     1     2    1
    18     2     3    1
    19     3     4    1
    20     4    24    1
    21    24    25    1
    22    24    26    1
    23    26    27    1
    24    27    28    1
    25    28    29   am
    26    29    30    2
    27    29    33    1
    28    33    34   ar
    29    34    35    1
    30    34    36   ar
    31    36    37   ar
    32    37    38   ar
    33    38    39   ar
    34    39    40    1
    35    28    31    1
    36    31    32    1
    37     4     5    1
    38     5     6    1
    39     6     7    1
    40    16     8    1
    41     6     1    1
    42    15    10   ar
    43    32    24    1
    44    39    33   ar
@<TRIPOS>MOLECULE
*****
 40 44 0 0 0
SMALL
GASTEIGER

@<TRIPOS>ATOM
      1 N         140.7882  140.9108  163.5223 N.3     1  UNL1       -0.2671
      2 C         139.9584  141.6705  162.5304 C.3     1  UNL1        0.0899
      3 C         140.5835  142.1856  161.2678 C.3     1  UNL1        0.0896
      4 N         142.0384  141.9410  160.9972 N.3     1  UNL1       -0.2728
      5 C         142.8683  141.1812  161.9892 C.3     1  UNL1        0.0882
      6 C         142.2433  140.6661  163.2517 C.3     1  UNL1        0.0739
      7 C         143.0732  139.9063  164.2437 C.3     1  UNL1        0.0188
      8 C         139.2383  139.2199  164.8948 C.3     1  UNL1        0.1382
      9 C         138.8568  139.0635  166.3370 C.3     1  UNL1        0.0573
     10 C         139.5460  140.1426  167.1184 C.ar    1  UNL1       -0.0224
     11 C         139.5427  140.4818  168.5795 C.ar    1  UNL1       -0.0006
     12 C         140.3468  141.6444  169.0813 C.ar    1  UNL1        0.0711
     13 C         141.1542  142.4677  168.1220 C.ar    1  UNL1        0.0036
     14 C         141.1575  142.1285  166.6609 C.ar    1  UNL1       -0.0033
     15 C         140.3534  140.9659  166.1591 C.ar    1  UNL1       -0.0093
     16 C         140.1632  140.3957  164.7849 C.3     1  UNL1        0.1077
     17 C         140.3435  141.9837  170.5425 C.3     1  UNL1        0.4186
     18 F         140.3402  142.3230  172.0036 F       1  UNL1       -0.1659
     19 F         139.6944  143.3005  170.2352 F       1  UNL1       -0.1659
     20 F         140.9927  140.6668  170.8498 F       1  UNL1       -0.1659
     21 O         138.7759  138.3528  163.7614 O.3     1  UNL1       -0.3542
     22 C         140.9689  136.9682  163.6081 C.3     1  UNL1        0.0346
     23 C         139.7761  137.5901  162.9443 C.3     1  UNL1        0.1422
     24 C         142.6634  142.4561  159.7347 C.3     1  UNL1        0.0488
     25 C         142.0889  143.7301  160.2795 C.3     1  UNL1        0.0161
     26 C         143.0208  141.0032  159.6283 C.3     1  UNL1        0.0362
     27 C         143.8037  140.5077  158.4487 C.3     1  UNL1        0.0951
     28 N         144.2293  141.4652  157.3753 N.am    1  UNL1       -0.2759
     29 C         145.0122  140.9699  156.1957 C.2     1  UNL1        0.2513
     30 O         145.3696  139.5170  156.0893 O.2     1  UNL1       -0.2698
     31 C         143.8718  142.9182  157.4817 C.3     1  UNL1        0.0951
     32 C         143.0890  143.4136  158.6613 C.3     1  UNL1        0.0362
     33 C         145.4377  141.9275  155.1223 C.ar    1  UNL1        0.0807
     34 C         144.5786  142.1234  153.9085 C.ar    1  UNL1        0.0666
     35 C         143.2939  141.3619  153.7680 C.3     1  UNL1        0.0523
     36 N         145.0040  143.0809  152.8351 N.ar    1  UNL1       -0.2282
     37 C         146.2887  143.8425  152.9755 C.ar    1  UNL1        0.1982
     38 N         147.1479  143.6465  154.1894 N.ar    1  UNL1       -0.2282
     39 C         146.7224  142.6890  155.2628 C.ar    1  UNL1        0.0666
     40 C         147.5816  142.4930  156.4766 C.3     1  UNL1        0.0523
@<TRIPOS>BOND
     1    22    23    1
     2    23    21    1
     3     8    21    1
     4     8     9    1
     5     9    10    1
     6    10    11   ar
     7    11    12   ar
     8    12    17    1
     9    17    18    1
    10    17    19    1
    11    17    20    1
    12    12    13   ar
    13    13    14   ar
    14    14    15   ar
    15    15    16    1
    16    16     1    1
    17     1     2    1
    18     2     3    1
    19     3     4    1
    20     4    24    1
    21    24    25    1
    22    24    26    1
    23    26    27    1
    24    27    28    1
    25    28    29   am
    26    29    30    2
    27    29    33    1
    28    33    34   ar
    29    34    35    1
    30    34    36   ar
    31    36    37   ar
    32    37    38   ar
    33    38    39   ar
    34    39    40    1
    35    28    31    1
    36    31    32    1
    37     4     5    1
    38     5     6    1
    39     6     7    1
    40    16     8    1
    41     6     1    1
    42    15    10   ar
    43    32    24    1
    44    39    33   ar
@<TRIPOS>MOLECULE
*****
 40 44 0 0 0
SMALL
GASTEIGER

@<TRIPOS>ATOM
      1 N         140.9137  140.8289  162.9005 N.3     1  UNL1       -0.2671
      2 C         141.8887  141.1666  161.8119 C.3     1  UNL1        0.0899
      3 C         141.8060  140.4675  160.4874 C.3     1  UNL1        0.0896
      4 N         140.7482  139.4305  160.2515 N.3     1  UNL1       -0.2728
      5 C         139.7731  139.0927  161.3400 C.3     1  UNL1        0.0882
      6 C         139.8558  139.7918  162.6646 C.3     1  UNL1        0.0739
      7 C         138.8807  139.4540  163.7532 C.3     1  UNL1        0.0188
      8 C         140.5531  142.9324  164.5098 C.3     1  UNL1        0.1382
      9 C         140.8196  143.2179  165.9581 C.3     1  UNL1        0.0573
     10 C         141.4277  141.9899  166.5683 C.ar    1  UNL1       -0.0224
     11 C         141.8960  141.6878  167.9609 C.ar    1  UNL1       -0.0006
     12 C         142.4736  140.3413  168.2824 C.ar    1  UNL1        0.0711
     13 C         142.5828  139.2970  167.2112 C.ar    1  UNL1        0.0036
     14 C         142.1145  139.5990  165.8186 C.ar    1  UNL1       -0.0033
     15 C         141.5369  140.9455  165.4972 C.ar    1  UNL1       -0.0093
     16 C         140.9964  141.5280  164.2250 C.3     1  UNL1        0.1077
     17 C         142.9420  140.0392  169.6750 C.3     1  UNL1        0.4186
     18 F         143.4103  139.7370  171.0676 F       1  UNL1       -0.1659
     19 F         142.2123  138.7293  169.6362 F       1  UNL1       -0.1659
     20 F         143.6717  141.3491  169.7139 F       1  UNL1       -0.1659
     21 O         139.9492  143.8843  163.5202 O.3     1  UNL1       -0.3542
     22 C         137.5806  142.9527  164.0416 C.3     1  UNL1        0.0346
     23 C         138.4842  143.8107  163.2066 C.3     1  UNL1        0.1422
     24 C         140.6655  138.7313  158.9269 C.3     1  UNL1        0.0488
     25 C         139.2114  138.7676  159.2936 C.3     1  UNL1        0.0161
     26 C         142.1482  138.9379  159.0203 C.3     1  UNL1        0.0362
     27 C         143.0434  138.4579  157.9166 C.3     1  UNL1        0.0951
     28 N         142.4557  137.7713  156.7193 N.am    1  UNL1       -0.2759
     29 C         143.3508  137.2913  155.6156 C.2     1  UNL1        0.2513
     30 O         144.8336  137.4979  155.7089 O.2     1  UNL1       -0.2698
     31 C         140.9729  137.5648  156.6260 C.3     1  UNL1        0.0951
     32 C         140.0778  138.0447  157.7297 C.3     1  UNL1        0.0362
     33 C         142.7631  136.6047  154.4183 C.ar    1  UNL1        0.0807
     34 C         142.3294  137.4103  153.2296 C.ar    1  UNL1        0.0666
     35 C         142.4833  138.9024  153.2382 C.3     1  UNL1        0.0523
     36 N         141.7418  136.7238  152.0324 N.ar    1  UNL1       -0.2282
     37 C         141.5879  135.2317  152.0238 C.ar    1  UNL1        0.1982
     38 N         142.0216  134.4262  153.2125 N.ar    1  UNL1       -0.2282
     39 C         142.6092  135.1127  154.4098 C.ar    1  UNL1        0.0666
     40 C         143.0430  134.3071  155.5985 C.3     1  UNL1        0.0523
@<TRIPOS>BOND
     1    22    23    1
     2    23    21    1
     3     8    21    1
     4     8     9    1
     5     9    10    1
     6    10    11   ar
     7    11    12   ar
     8    12    17    1
     9    17    18    1
    10    17    19    1
    11    17    20    1
    12    12    13   ar
    13    13    14   ar
    14    14    15   ar
    15    15    16    1
    16    16     1    1
    17     1     2    1
    18     2     3    1
    19     3     4    1
    20     4    24    1
    21    24    25    1
    22    24    26    1
    23    26    27    1
    24    27    28    1
    25    28    29   am
    26    29    30    2
    27    29    33    1
    28    33    34   ar
    29    34    35    1
    30    34    36   ar
    31    36    37   ar
    32    37    38   ar
    33    38    39   ar
    34    39    40    1
    35    28    31    1
    36    31    32    1
    37     4     5    1
    38     5     6    1
    39     6     7    1
    40    16     8    1
    41     6     1    1
    42    15    10   ar
    43    32    24    1
    44    39    33   ar
@<TRIPOS>MOLECULE
*****
 40 44 0 0 0
SMALL
GASTEIGER

@<TRIPOS>ATOM
      1 N         140.8220  139.8052  164.0242 N.3     1  UNL1       -0.2671
      2 C         140.6818  140.9348  163.0475 C.3     1  UNL1        0.0899
      3 C         140.9900  140.7142  161.5961 C.3     1  UNL1        0.0896
      4 N         141.4384  139.3638  161.1215 N.3     1  UNL1       -0.2728
      5 C         141.5787  138.2340  162.0982 C.3     1  UNL1        0.0882
      6 C         141.2705  138.4547  163.5495 C.3     1  UNL1        0.0739
      7 C         141.4108  137.3249  164.5262 C.3     1  UNL1        0.0188
      8 C         139.3372  139.4698  166.2214 C.3     1  UNL1        0.1382
      9 C         139.4244  139.9415  167.6426 C.3     1  UNL1        0.0573
     10 C         140.6549  140.7891  167.7751 C.ar    1  UNL1       -0.0224
     11 C         141.2492  141.5202  168.9422 C.ar    1  UNL1       -0.0006
     12 C         142.5168  142.3034  168.7700 C.ar    1  UNL1        0.0711
     13 C         143.1901  142.3555  167.4306 C.ar    1  UNL1        0.0036
     14 C         142.5958  141.6244  166.2634 C.ar    1  UNL1       -0.0033
     15 C         141.3282  140.8412  166.4357 C.ar    1  UNL1       -0.0093
     16 C         140.5138  140.0258  165.4755 C.3     1  UNL1        0.1077
     17 C         143.1112  143.0346  169.9371 C.3     1  UNL1        0.4186
     18 F         143.7056  143.7656  171.1042 F       1  UNL1       -0.1659
     19 F         144.4492  142.4270  169.6363 F       1  UNL1       -0.1659
     20 F         141.7732  143.6421  170.2380 F       1  UNL1       -0.1659
     21 O         138.2622  138.5955  165.6470 O.3     1  UNL1       -0.3542
     22 C         136.8696  137.5991  167.6009 C.3     1  UNL1        0.0346
     23 C         137.7712  137.4061  166.4178 C.3     1  UNL1        0.1422
     24 C         141.7466  139.1432  159.6702 C.3     1  UNL1        0.0488
     25 C         143.0521  139.7224  160.1286 C.3     1  UNL1        0.0161
     26 C         140.3341  138.6405  159.7159 C.3     1  UNL1        0.0362
     27 C         139.6830  138.1184  158.4695 C.3     1  UNL1        0.0951
     28 N         140.4446  138.0989  157.1773 N.am    1  UNL1       -0.2759
     29 C         139.7937  137.5769  155.9309 C.2     1  UNL1        0.2513
     30 O         138.3811  137.0742  155.9765 O.2     1  UNL1       -0.2698
     31 C         141.8572  138.6016  157.1317 C.3     1  UNL1        0.0951
     32 C         142.5081  139.1237  158.3780 C.3     1  UNL1        0.0362
     33 C         140.5552  137.5574  154.6387 C.ar    1  UNL1        0.0807
     34 C         140.5602  138.7678  153.7528 C.ar    1  UNL1        0.0666
     35 C         139.8037  139.9977  154.1591 C.3     1  UNL1        0.0523
     36 N         141.3217  138.7484  152.4606 N.ar    1  UNL1       -0.2282
     37 C         142.0782  137.5185  152.0543 C.ar    1  UNL1        0.1982
     38 N         142.0732  136.3081  152.9402 N.ar    1  UNL1       -0.2282
     39 C         141.3117  136.3275  154.2324 C.ar    1  UNL1        0.0666
     40 C         141.3067  135.1170  155.1183 C.3     1  UNL1        0.0523
@<TRIPOS>BOND
     1    22    23    1
     2    23    21    1
     3     8    21    1
     4     8     9    1
     5     9    10    1
     6    10    11   ar
     7    11    12   ar
     8    12    17    1
     9    17    18    1
    10    17    19    1
    11    17    20    1
    12    12    13   ar
    13    13    14   ar
    14    14    15   ar
    15    15    16    1
    16    16     1    1
    17     1     2    1
    18     2     3    1
    19     3     4    1
    20     4    24    1
    21    24    25    1
    22    24    26    1
    23    26    27    1
    24    27    28    1
    25    28    29   am
    26    29    30    2
    27    29    33    1
    28    33    34   ar
    29    34    35    1
    30    34    36   ar
    31    36    37   ar
    32    37    38   ar
    33    38    39   ar
    34    39    40    1
    35    28    31    1
    36    31    32    1
    37     4     5    1
    38     5     6    1
    39     6     7    1
    40    16     8    1
    41     6     1    1
    42    15    10   ar
    43    32    24    1
    44    39    33   ar
@<TRIPOS>MOLECULE
*****
 40 44 0 0 0
SMALL
GASTEIGER

@<TRIPOS>ATOM
      1 N         143.5660  141.0077  159.3975 N.3     1  UNL1       -0.2671
      2 C         143.9132  140.1176  160.5537 C.3     1  UNL1        0.0899
      3 C         143.4189  140.4492  161.9305 C.3     1  UNL1        0.0896
      4 N         142.5773  141.6711  162.1511 N.3     1  UNL1       -0.2728
      5 C         142.2301  142.5614  160.9949 C.3     1  UNL1        0.0882
      6 C         142.7244  142.2297  159.6181 C.3     1  UNL1        0.0739
      7 C         142.3771  143.1200  158.4619 C.3     1  UNL1        0.0188
      8 C         143.4860  139.6366  157.1043 C.3     1  UNL1        0.1382
      9 C         144.2864  139.6438  155.8358 C.3     1  UNL1        0.0573
     10 C         145.3554  140.6877  155.9681 C.ar    1  UNL1       -0.0224
     11 C         146.4380  141.1398  155.0334 C.ar    1  UNL1       -0.0006
     12 C         147.3808  142.2298  155.4492 C.ar    1  UNL1        0.0711
     13 C         147.2411  142.8678  156.7995 C.ar    1  UNL1        0.0036
     14 C         146.1585  142.4158  157.7341 C.ar    1  UNL1       -0.0033
     15 C         145.2156  141.3257  157.3184 C.ar    1  UNL1       -0.0093
     16 C         144.0603  140.6761  158.0206 C.3     1  UNL1        0.1077
     17 C         148.4635  142.6819  154.5145 C.3     1  UNL1        0.4186
     18 F         149.5462  143.1340  153.5799 F       1  UNL1       -0.1659
     19 F         149.3328  141.5490  154.9736 F       1  UNL1       -0.1659
     20 F         147.5942  143.8148  154.0555 F       1  UNL1       -0.1659
     21 O         142.3166  138.7462  157.4039 O.3     1  UNL1       -0.3542
     22 C         142.8120  136.2609  156.8317 C.3     1  UNL1        0.0346
     23 C         142.5452  137.3318  157.8476 C.3     1  UNL1        0.1422
     24 C         142.0830  142.0028  163.5280 C.3     1  UNL1        0.0488
     25 C         141.4934  143.1465  162.7570 C.3     1  UNL1        0.0161
     26 C         142.8443  140.7439  163.8207 C.3     1  UNL1        0.0362
     27 C         142.9066  140.2138  165.2225 C.3     1  UNL1        0.0951
     28 N         142.2075  140.9427  166.3317 N.am    1  UNL1       -0.2759
     29 C         142.2697  140.4127  167.7335 C.2     1  UNL1        0.2513
     30 O         143.0310  139.1538  168.0263 O.2     1  UNL1       -0.2698
     31 C         141.4462  142.2016  166.0389 C.3     1  UNL1        0.0951
     32 C         141.3840  142.7316  164.6371 C.3     1  UNL1        0.0362
     33 C         141.5707  141.1415  168.8426 C.ar    1  UNL1        0.0807
     34 C         140.1152  140.8905  169.1045 C.ar    1  UNL1        0.0666
     35 C         139.3588  139.9107  168.2572 C.3     1  UNL1        0.0523
     36 N         139.4161  141.6193  170.2136 N.ar    1  UNL1       -0.2282
     37 C         140.1725  142.5990  171.0609 C.ar    1  UNL1        0.1982
     38 N         141.6280  142.8500  170.7991 N.ar    1  UNL1       -0.2282
     39 C         142.3271  142.1213  169.6900 C.ar    1  UNL1        0.0666
     40 C         143.7826  142.3723  169.4281 C.3     1  UNL1        0.0523
@<TRIPOS>BOND
     1    22    23    1
     2    23    21    1
     3     8    21    1
     4     8     9    1
     5     9    10    1
     6    10    11   ar
     7    11    12   ar
     8    12    17    1
     9    17    18    1
    10    17    19    1
    11    17    20    1
    12    12    13   ar
    13    13    14   ar
    14    14    15   ar
    15    15    16    1
    16    16     1    1
    17     1     2    1
    18     2     3    1
    19     3     4    1
    20     4    24    1
    21    24    25    1
    22    24    26    1
    23    26    27    1
    24    27    28    1
    25    28    29   am
    26    29    30    2
    27    29    33    1
    28    33    34   ar
    29    34    35    1
    30    34    36   ar
    31    36    37   ar
    32    37    38   ar
    33    38    39   ar
    34    39    40    1
    35    28    31    1
    36    31    32    1
    37     4     5    1
    38     5     6    1
    39     6     7    1
    40    16     8    1
    41     6     1    1
    42    15    10   ar
    43    32    24    1
    44    39    33   ar
@<TRIPOS>MOLECULE
*****
 40 44 0 0 0
SMALL
GASTEIGER

@<TRIPOS>ATOM
      1 N         140.5929  144.2735  158.5332 N.3     1  UNL1       -0.2671
      2 C         141.3985  144.8879  159.6392 C.3     1  UNL1        0.0899
      3 C         141.0984  144.5416  161.0674 C.3     1  UNL1        0.0896
      4 N         139.9925  143.5807  161.3897 N.3     1  UNL1       -0.2728
      5 C         139.1868  142.9663  160.2837 C.3     1  UNL1        0.0882
      6 C         139.4870  143.3126  158.8554 C.3     1  UNL1        0.0739
      7 C         138.6813  142.6982  157.7494 C.3     1  UNL1        0.0188
      8 C         141.7034  143.7952  156.1492 C.3     1  UNL1        0.1382
      9 C         141.7467  144.5175  154.8353 C.3     1  UNL1        0.0573
     10 C         140.9631  145.7885  154.9788 C.ar    1  UNL1       -0.0224
     11 C         140.6619  146.8963  154.0135 C.ar    1  UNL1       -0.0006
     12 C         139.8331  148.0675  154.4509 C.ar    1  UNL1        0.0711
     13 C         139.3055  148.1308  155.8536 C.ar    1  UNL1        0.0036
     14 C         139.6067  147.0229  156.8190 C.ar    1  UNL1       -0.0033
     15 C         140.4355  145.8518  156.3816 C.ar    1  UNL1       -0.0093
     16 C         140.8931  144.6199  157.1049 C.3     1  UNL1        0.1077
     17 C         139.5318  149.1754  153.4856 C.3     1  UNL1        0.4186
     18 F         139.2305  150.2833  152.5203 F       1  UNL1       -0.1659
     19 F         138.8490  149.9423  154.5790 F       1  UNL1       -0.1659
     20 F         140.2145  148.4084  152.3922 F       1  UNL1       -0.1659
     21 O         142.3559  142.4794  156.4540 O.3     1  UNL1       -0.3542
     22 C         144.2322  142.6133  158.2460 C.3     1  UNL1        0.0346
     23 C         143.8101  142.4299  156.8184 C.3     1  UNL1        0.1422
     24 C         139.6923  143.2344  162.8180 C.3     1  UNL1        0.0488
     25 C         138.8154  144.4400  162.6525 C.3     1  UNL1        0.0161
     26 C         140.6736  142.1491  162.4874 C.3     1  UNL1        0.0362
     27 C         141.0501  141.1361  163.5276 C.3     1  UNL1        0.0951
     28 N         140.4454  141.2083  164.8984 N.am    1  UNL1       -0.2759
     29 C         140.8219  140.1954  165.9386 C.2     1  UNL1        0.2513
     30 O         141.8032  139.1100  165.6081 O.2     1  UNL1       -0.2698
     31 C         139.4642  142.2937  165.2289 C.3     1  UNL1        0.0951
     32 C         139.0876  143.3066  164.1888 C.3     1  UNL1        0.0362
     33 C         140.2172  140.2677  167.3094 C.ar    1  UNL1        0.0807
     34 C         140.8955  141.0598  168.3875 C.ar    1  UNL1        0.0666
     35 C         142.1786  141.7797  168.0948 C.3     1  UNL1        0.0523
     36 N         140.2909  141.1322  169.7584 N.ar    1  UNL1       -0.2282
     37 C         139.0079  140.4123  170.0511 C.ar    1  UNL1        0.1982
     38 N         138.3295  139.6201  168.9730 N.ar    1  UNL1       -0.2282
     39 C         138.9342  139.5478  167.6022 C.ar    1  UNL1        0.0666
     40 C         138.2558  138.7557  166.5241 C.3     1  UNL1        0.0523
@<TRIPOS>BOND
     1    22    23    1
     2    23    21    1
     3     8    21    1
     4     8     9    1
     5     9    10    1
     6    10    11   ar
     7    11    12   ar
     8    12    17    1
     9    17    18    1
    10    17    19    1
    11    17    20    1
    12    12    13   ar
    13    13    14   ar
    14    14    15   ar
    15    15    16    1
    16    16     1    1
    17     1     2    1
    18     2     3    1
    19     3     4    1
    20     4    24    1
    21    24    25    1
    22    24    26    1
    23    26    27    1
    24    27    28    1
    25    28    29   am
    26    29    30    2
    27    29    33    1
    28    33    34   ar
    29    34    35    1
    30    34    36   ar
    31    36    37   ar
    32    37    38   ar
    33    38    39   ar
    34    39    40    1
    35    28    31    1
    36    31    32    1
    37     4     5    1
    38     5     6    1
    39     6     7    1
    40    16     8    1
    41     6     1    1
    42    15    10   ar
    43    32    24    1
    44    39    33   ar
@<TRIPOS>MOLECULE
*****
 40 44 0 0 0
SMALL
GASTEIGER

@<TRIPOS>ATOM
      1 N         141.1207  143.6061  159.4745 N.3     1  UNL1       -0.2671
      2 C         142.2180  144.0806  160.3804 C.3     1  UNL1        0.0899
      3 C         142.0505  143.9978  161.8687 C.3     1  UNL1        0.0896
      4 N         140.7856  143.4403  162.4512 N.3     1  UNL1       -0.2728
      5 C         139.6883  142.9657  161.5454 C.3     1  UNL1        0.0882
      6 C         139.8558  143.0486  160.0570 C.3     1  UNL1        0.0739
      7 C         138.7584  142.5740  159.1512 C.3     1  UNL1        0.0188
      8 C         141.8796  142.6288  157.1051 C.3     1  UNL1        0.1382
      9 C         141.8506  143.1312  155.6921 C.3     1  UNL1        0.0573
     10 C         141.2412  144.5018  155.6998 C.ar    1  UNL1       -0.0224
     11 C         140.9580  145.4805  154.5990 C.ar    1  UNL1       -0.0006
     12 C         140.3271  146.8039  154.9160 C.ar    1  UNL1        0.0711
     13 C         139.9795  147.1486  156.3339 C.ar    1  UNL1        0.0036
     14 C         140.2628  146.1699  157.4347 C.ar    1  UNL1       -0.0033
     15 C         140.8936  144.8465  157.1177 C.ar    1  UNL1       -0.0093
     16 C         141.2882  143.6889  157.9862 C.3     1  UNL1        0.1077
     17 C         140.0438  147.7827  153.8152 C.3     1  UNL1        0.4186
     18 F         139.7606  148.7614  152.7144 F       1  UNL1       -0.1659
     19 F         141.1444  147.1783  152.9946 F       1  UNL1       -0.1659
     20 F         138.9432  148.3871  154.6357 F       1  UNL1       -0.1659
     21 O         142.4074  141.2996  157.5577 O.3     1  UNL1       -0.3542
     22 C         144.7148  142.3783  158.0698 C.3     1  UNL1        0.0346
     23 C         143.8470  141.1602  157.9552 C.3     1  UNL1        0.1422
     24 C         140.6181  143.3574  163.9395 C.3     1  UNL1        0.0488
     25 C         139.7779  144.5658  163.6497 C.3     1  UNL1        0.0161
     26 C         141.5165  142.1779  163.7124 C.3     1  UNL1        0.0362
     27 C         141.9556  141.3351  164.8729 C.3     1  UNL1        0.0951
     28 N         141.4964  141.6718  166.2606 N.am    1  UNL1       -0.2759
     29 C         141.9354  140.8291  167.4212 C.2     1  UNL1        0.2513
     30 O         142.8339  139.6495  167.1941 O.2     1  UNL1       -0.2698
     31 C         140.5980  142.8514  166.4877 C.3     1  UNL1        0.0951
     32 C         140.1589  143.6942  165.3272 C.3     1  UNL1        0.0362
     33 C         141.4762  141.1658  168.8089 C.ar    1  UNL1        0.0807
     34 C         140.1279  140.7112  169.2836 C.ar    1  UNL1        0.0666
     35 C         139.2389  139.9198  168.3707 C.3     1  UNL1        0.0523
     36 N         139.6686  141.0479  170.6713 N.ar    1  UNL1       -0.2282
     37 C         140.5576  141.8392  171.5843 C.ar    1  UNL1        0.1982
     38 N         141.9058  142.2939  171.1095 N.ar    1  UNL1       -0.2282
     39 C         142.3652  141.9572  169.7218 C.ar    1  UNL1        0.0666
     40 C         143.7135  142.4119  169.2471 C.3     1  UNL1        0.0523
@<TRIPOS>BOND
     1    22    23    1
     2    23    21    1
     3     8    21    1
     4     8     9    1
     5     9    10    1
     6    10    11   ar
     7    11    12   ar
     8    12    17    1
     9    17    18    1
    10    17    19    1
    11    17    20    1
    12    12    13   ar
    13    13    14   ar
    14    14    15   ar
    15    15    16    1
    16    16     1    1
    17     1     2    1
    18     2     3    1
    19     3     4    1
    20     4    24    1
    21    24    25    1
    22    24    26    1
    23    26    27    1
    24    27    28    1
    25    28    29   am
    26    29    30    2
    27    29    33    1
    28    33    34   ar
    29    34    35    1
    30    34    36   ar
    31    36    37   ar
    32    37    38   ar
    33    38    39   ar
    34    39    40    1
    35    28    31    1
    36    31    32    1
    37     4     5    1
    38     5     6    1
    39     6     7    1
    40    16     8    1
    41     6     1    1
    42    15    10   ar
    43    32    24    1
    44    39    33   ar
@<TRIPOS>MOLECULE
*****
 40 44 0 0 0
SMALL
GASTEIGER

@<TRIPOS>ATOM
      1 N         142.3176  140.8018  163.3813 N.3     1  UNL1       -0.2671
      2 C         141.1486  141.3072  162.5889 C.3     1  UNL1        0.0899
      3 C         140.7793  140.6477  161.2933 C.3     1  UNL1        0.0896
      4 N         141.5790  139.4828  160.7900 N.3     1  UNL1       -0.2728
      5 C         142.7481  138.9773  161.5823 C.3     1  UNL1        0.0882
      6 C         143.1174  139.6368  162.8780 C.3     1  UNL1        0.0739
      7 C         144.2864  139.1313  163.6703 C.3     1  UNL1        0.0188
      8 C         143.6645  142.5862  164.8464 C.3     1  UNL1        0.1382
      9 C         143.7252  142.9317  166.3048 C.3     1  UNL1        0.0573
     10 C         142.7851  142.0203  167.0367 C.ar    1  UNL1       -0.0224
     11 C         142.4306  141.9005  168.4892 C.ar    1  UNL1       -0.0006
     12 C         141.4343  140.8719  168.9357 C.ar    1  UNL1        0.0711
     13 C         140.7926  139.9631  167.9295 C.ar    1  UNL1        0.0036
     14 C         141.1472  140.0829  166.4770 C.ar    1  UNL1       -0.0033
     15 C         142.1434  141.1115  166.0306 C.ar    1  UNL1       -0.0093
     16 C         142.6869  141.4613  164.6770 C.3     1  UNL1        0.1077
     17 C         141.0797  140.7521  170.3883 C.3     1  UNL1        0.4186
     18 F         140.7251  140.6323  171.8408 F       1  UNL1       -0.1659
     19 F         140.8567  142.2338  170.4560 F       1  UNL1       -0.1659
     20 F         141.3027  139.2703  170.3205 F       1  UNL1       -0.1659
     21 O         144.4444  143.2493  163.7501 O.3     1  UNL1       -0.3542
     22 C         142.6611  145.1321  163.5925 C.3     1  UNL1        0.0346
     23 C         144.0030  144.5789  163.2141 C.3     1  UNL1        0.1422
     24 C         141.2097  138.8233  159.4943 C.3     1  UNL1        0.0488
     25 C         139.8470  138.9944  160.0973 C.3     1  UNL1        0.0161
     26 C         142.7008  138.8813  159.3414 C.3     1  UNL1        0.0362
     27 C         143.3493  138.3392  158.1023 C.3     1  UNL1        0.0951
     28 N         142.5068  137.7391  157.0159 N.am    1  UNL1       -0.2759
     29 C         143.1552  137.1970  155.7768 C.2     1  UNL1        0.2513
     30 O         144.6463  137.2550  155.6238 O.2     1  UNL1       -0.2698
     31 C         141.0156  137.6812  157.1689 C.3     1  UNL1        0.0951
     32 C         140.3672  138.2232  158.4080 C.3     1  UNL1        0.0362
     33 C         142.3126  136.5970  154.6905 C.ar    1  UNL1        0.0807
     34 C         141.9536  135.1414  154.7375 C.ar    1  UNL1        0.0666
     35 C         142.4371  134.2858  155.8708 C.3     1  UNL1        0.0523
     36 N         141.1110  134.5412  153.6512 N.ar    1  UNL1       -0.2282
     37 C         140.6275  135.3967  152.5179 C.ar    1  UNL1        0.1982
     38 N         140.9866  136.8523  152.4709 N.ar    1  UNL1       -0.2282
     39 C         141.8291  137.4525  153.5571 C.ar    1  UNL1        0.0666
     40 C         142.1882  138.9081  153.5101 C.3     1  UNL1        0.0523
@<TRIPOS>BOND
     1    22    23    1
     2    23    21    1
     3     8    21    1
     4     8     9    1
     5     9    10    1
     6    10    11   ar
     7    11    12   ar
     8    12    17    1
     9    17    18    1
    10    17    19    1
    11    17    20    1
    12    12    13   ar
    13    13    14   ar
    14    14    15   ar
    15    15    16    1
    16    16     1    1
    17     1     2    1
    18     2     3    1
    19     3     4    1
    20     4    24    1
    21    24    25    1
    22    24    26    1
    23    26    27    1
    24    27    28    1
    25    28    29   am
    26    29    30    2
    27    29    33    1
    28    33    34   ar
    29    34    35    1
    30    34    36   ar
    31    36    37   ar
    32    37    38   ar
    33    38    39   ar
    34    39    40    1
    35    28    31    1
    36    31    32    1
    37     4     5    1
    38     5     6    1
    39     6     7    1
    40    16     8    1
    41     6     1    1
    42    15    10   ar
    43    32    24    1
    44    39    33   ar
@<TRIPOS>MOLECULE
*****
 40 44 0 0 0
SMALL
GASTEIGER

@<TRIPOS>ATOM
      1 N         140.0087  141.4708  163.2115 N.3     1  UNL1       -0.2671
      2 C         141.3967  141.3460  162.6568 C.3     1  UNL1        0.0899
      3 C         141.7727  142.0807  161.4042 C.3     1  UNL1        0.0896
      4 N         140.7607  142.9401  160.7063 N.3     1  UNL1       -0.2728
      5 C         139.3726  143.0650  161.2610 C.3     1  UNL1        0.0882
      6 C         138.9966  142.3303  162.5136 C.3     1  UNL1        0.0739
      7 C         137.6085  142.4552  163.0683 C.3     1  UNL1        0.0188
      8 C         138.8885  139.4356  164.5337 C.3     1  UNL1        0.1382
      9 C         138.7307  139.0688  165.9796 C.3     1  UNL1        0.0573
     10 C         139.3774  140.1426  166.8035 C.ar    1  UNL1       -0.0224
     11 C         139.5306  140.3151  168.2856 C.ar    1  UNL1       -0.0006
     12 C         140.2413  141.5182  168.8310 C.ar    1  UNL1        0.0711
     13 C         140.7988  142.5487  167.8944 C.ar    1  UNL1        0.0036
     14 C         140.6455  142.3761  166.4123 C.ar    1  UNL1       -0.0033
     15 C         139.9348  141.1731  165.8668 C.ar    1  UNL1       -0.0093
     16 C         139.6327  140.7361  164.4640 C.3     1  UNL1        0.1077
     17 C         140.3946  141.6908  170.3132 C.3     1  UNL1        0.4186
     18 F         140.5478  141.8633  171.7953 F       1  UNL1       -0.1659
     19 F         139.4004  140.5916  170.5440 F       1  UNL1       -0.1659
     20 F         141.3888  142.7900  170.0825 F       1  UNL1       -0.1659
     21 O         138.3897  138.6414  163.3631 O.3     1  UNL1       -0.3542
     22 C         139.6987  138.3335  161.1401 C.3     1  UNL1        0.0346
     23 C         139.3543  137.8600  162.5211 C.3     1  UNL1        0.1422
     24 C         141.1367  143.6748  159.4538 C.3     1  UNL1        0.0488
     25 C         141.1944  144.8006  160.4434 C.3     1  UNL1        0.0161
     26 C         140.9484  142.2939  158.8993 C.3     1  UNL1        0.0362
     27 C         141.1561  142.0385  157.4358 C.3     1  UNL1        0.0951
     28 N         141.5522  143.1641  156.5269 N.am    1  UNL1       -0.2759
     29 C         141.7599  142.9088  155.0635 C.2     1  UNL1        0.2513
     30 O         141.5716  141.5278  154.5089 O.2     1  UNL1       -0.2698
     31 C         141.7405  144.5451  157.0815 C.3     1  UNL1        0.0951
     32 C         141.5328  144.8004  158.5448 C.3     1  UNL1        0.0362
     33 C         142.1560  144.0344  154.1546 C.ar    1  UNL1        0.0807
     34 C         143.6041  144.2757  153.8468 C.ar    1  UNL1        0.0666
     35 C         144.6561  143.3915  154.4481 C.3     1  UNL1        0.0523
     36 N         144.0003  145.4013  152.9379 N.ar    1  UNL1       -0.2282
     37 C         142.9483  146.2855  152.3367 C.ar    1  UNL1        0.1982
     38 N         141.5002  146.0442  152.6444 N.ar    1  UNL1       -0.2282
     39 C         141.1040  144.9186  153.5533 C.ar    1  UNL1        0.0666
     40 C         139.6559  144.6773  153.8610 C.3     1  UNL1        0.0523
@<TRIPOS>BOND
     1    22    23    1
     2    23    21    1
     3     8    21    1
     4     8     9    1
     5     9    10    1
     6    10    11   ar
     7    11    12   ar
     8    12    17    1
     9    17    18    1
    10    17    19    1
    11    17    20    1
    12    12    13   ar
    13    13    14   ar
    14    14    15   ar
    15    15    16    1
    16    16     1    1
    17     1     2    1
    18     2     3    1
    19     3     4    1
    20     4    24    1
    21    24    25    1
    22    24    26    1
    23    26    27    1
    24    27    28    1
    25    28    29   am
    26    29    30    2
    27    29    33    1
    28    33    34   ar
    29    34    35    1
    30    34    36   ar
    31    36    37   ar
    32    37    38   ar
    33    38    39   ar
    34    39    40    1
    35    28    31    1
    36    31    32    1
    37     4     5    1
    38     5     6    1
    39     6     7    1
    40    16     8    1
    41     6     1    1
    42    15    10   ar
    43    32    24    1
    44    39    33   ar
