@<TRIPOS>MOLECULE
*****
 28 31 0 0 0
SMALL
GASTEIGER

@<TRIPOS>ATOM
      1 N         139.0437  139.9147  166.3940 N.pl3   1  UNL1       -0.3077
      2 C         139.8706  139.6761  167.6225 C.3     1  UNL1        0.0911
      3 C         140.7358  140.7729  168.1687 C.3     1  UNL1        0.0261
      4 C         140.7742  142.1082  167.4864 C.3     1  UNL1        0.0295
      5 C         139.9474  142.3467  166.2579 C.ar    1  UNL1       -0.0054
      6 C         139.9858  143.6820  165.5756 C.ar    1  UNL1        0.0371
      7 C         139.1589  143.9206  164.3471 C.ar    1  UNL1        0.1354
      8 C         138.2935  142.8238  163.8008 C.ar    1  UNL1        0.0414
      9 C         138.2551  141.4885  164.4831 C.ar    1  UNL1        0.0177
     10 C         139.0821  141.2500  165.7117 C.ar    1  UNL1        0.0440
     11 N         139.1973  145.2559  163.6648 N.pl3   1  UNL1       -0.1990
     12 H         138.6348  145.9935  163.9946 H       1  UNL1        0.2985
     13 C         140.0927  145.4673  162.4802 C.2     1  UNL1        0.3224
     14 N         139.5821  146.2010  161.2756 N.2     1  UNL1       -0.0985
     15 H         138.6592  146.5437  161.2626 H       1  UNL1        0.3633
     16 C         141.4987  144.9451  162.5000 C.ar    1  UNL1        0.1114
     17 C         142.5506  145.2833  163.5145 C.ar    1  UNL1        0.0144
     18 C         143.8017  144.5402  163.1504 C.ar    1  UNL1        0.0077
     19 C         143.5231  143.7428  161.9108 C.ar    1  UNL1        0.0357
     20 S         142.0997  143.9931  161.5089 S.2     1  UNL1       -0.0792
     21 C         138.1783  138.8180  165.8477 C.3     1  UNL1        0.0921
     22 C         138.8062  137.5806  165.2778 C.3     1  UNL1        0.0374
     23 C         138.1265  138.1784  162.1425 C.3     1  UNL1        0.0896
     24 N         139.4930  137.9659  162.7235 N.3     1  UNL1       -0.2727
     25 C         140.7870  137.9910  161.9652 C.3     1  UNL1        0.0721
     26 C         141.8993  137.7317  162.9378 C.3     1  UNL1        0.0187
     27 C         141.2926  137.5465  164.2970 C.3     1  UNL1        0.0174
     28 C         139.8055  137.6912  164.1646 C.3     1  UNL1        0.0593
@<TRIPOS>BOND
     1    23    24    1
     2    24    25    1
     3    25    26    1
     4    26    27    1
     5    27    28    1
     6    28    22    1
     7    22    21    1
     8    21     1    1
     9     1     2    1
    10     2     3    1
    11     3     4    1
    12     4     5    1
    13     5     6   ar
    14     6     7   ar
    15     7    11    1
    16    11    13    1
    17    13    14    2
    18    13    16    1
    19    16    17   ar
    20    17    18   ar
    21    18    19   ar
    22    19    20   ar
    23     7     8   ar
    24     8     9   ar
    25     9    10   ar
    26    28    24    1
    27    10     1    1
    28    10     5   ar
    29    20    16   ar
    30    11    12    1
    31    14    15    1
@<TRIPOS>MOLECULE
*****
 28 31 0 0 0
SMALL
GASTEIGER

@<TRIPOS>ATOM
      1 N         139.0553  139.9363  166.6108 N.pl3   1  UNL1       -0.3077
      2 C         139.2646  139.8318  168.0925 C.3     1  UNL1        0.0911
      3 C         140.1518  140.8157  168.7958 C.3     1  UNL1        0.0261
      4 C         140.8299  141.9041  168.0175 C.3     1  UNL1        0.0295
      5 C         140.6206  142.0086  166.5359 C.ar    1  UNL1       -0.0054
      6 C         141.2987  143.0969  165.7576 C.ar    1  UNL1        0.0371
      7 C         141.0894  143.2014  164.2760 C.ar    1  UNL1        0.1354
      8 C         140.2021  142.2175  163.5726 C.ar    1  UNL1        0.0414
      9 C         139.5241  141.1292  164.3508 C.ar    1  UNL1        0.0177
     10 C         139.7334  141.0247  165.8325 C.ar    1  UNL1        0.0440
     11 N         141.7675  144.2898  163.4977 N.pl3   1  UNL1       -0.1990
     12 H         141.2584  145.0841  163.2163 H       1  UNL1        0.2985
     13 C         143.2210  144.1679  163.1481 C.2     1  UNL1        0.3224
     14 N         143.9956  145.3817  162.7279 N.2     1  UNL1       -0.0985
     15 H         143.5500  146.2584  162.6815 H       1  UNL1        0.3633
     16 C         143.9000  142.8322  163.2187 C.ar    1  UNL1        0.1114
     17 C         144.7358  142.3271  164.3572 C.ar    1  UNL1        0.0144
     18 C         145.2147  140.9498  164.0053 C.ar    1  UNL1        0.0077
     19 C         144.6748  140.6037  162.6493 C.ar    1  UNL1        0.0357
     20 S         143.8623  141.7671  162.1631 S.2     1  UNL1       -0.0792
     21 C         138.1680  138.9524  165.9074 C.3     1  UNL1        0.0921
     22 C         138.7421  137.6745  165.3714 C.3     1  UNL1        0.0374
     23 C         138.2093  138.0174  162.1702 C.3     1  UNL1        0.0896
     24 N         139.5483  137.8725  162.8306 N.3     1  UNL1       -0.2727
     25 C         140.8774  137.8598  162.1355 C.3     1  UNL1        0.0721
     26 C         141.9439  137.6943  163.1774 C.3     1  UNL1        0.0187
     27 C         141.2737  137.6048  164.5163 C.3     1  UNL1        0.0174
     28 C         139.7932  137.7149  164.3020 C.3     1  UNL1        0.0593
@<TRIPOS>BOND
     1    23    24    1
     2    24    25    1
     3    25    26    1
     4    26    27    1
     5    27    28    1
     6    28    22    1
     7    22    21    1
     8    21     1    1
     9     1     2    1
    10     2     3    1
    11     3     4    1
    12     4     5    1
    13     5     6   ar
    14     6     7   ar
    15     7    11    1
    16    11    13    1
    17    13    14    2
    18    13    16    1
    19    16    17   ar
    20    17    18   ar
    21    18    19   ar
    22    19    20   ar
    23     7     8   ar
    24     8     9   ar
    25     9    10   ar
    26    28    24    1
    27    10     1    1
    28    10     5   ar
    29    20    16   ar
    30    11    12    1
    31    14    15    1
@<TRIPOS>MOLECULE
*****
 28 31 0 0 0
SMALL
GASTEIGER

@<TRIPOS>ATOM
      1 N         140.4165  144.4993  164.3731 N.pl3   1  UNL1       -0.3077
      2 C         141.3147  145.4203  163.6019 C.3     1  UNL1        0.0911
      3 C         142.7869  145.1431  163.5270 C.3     1  UNL1        0.0261
      4 C         143.3609  143.9449  164.2233 C.3     1  UNL1        0.0295
      5 C         142.4627  143.0239  164.9945 C.ar    1  UNL1       -0.0054
      6 C         143.0367  141.8257  165.6909 C.ar    1  UNL1        0.0371
      7 C         142.1384  140.9047  166.4621 C.ar    1  UNL1        0.1354
      8 C         140.6661  141.1819  166.5370 C.ar    1  UNL1        0.0414
      9 C         140.0921  142.3800  165.8407 C.ar    1  UNL1        0.0177
     10 C         140.9905  143.3011  165.0694 C.ar    1  UNL1        0.0440
     11 N         142.7124  139.7065  167.1584 N.pl3   1  UNL1       -0.1990
     12 H         142.7674  139.6878  168.1412 H       1  UNL1        0.2985
     13 C         143.2026  138.5369  166.3574 C.2     1  UNL1        0.3224
     14 N         144.2659  137.6383  166.9159 N.2     1  UNL1       -0.0985
     15 H         144.6419  137.8161  167.8082 H       1  UNL1        0.3633
     16 C         142.6296  138.2660  164.9979 C.ar    1  UNL1        0.1114
     17 C         143.2258  138.6917  163.6890 C.ar    1  UNL1        0.0144
     18 C         142.3245  138.2106  162.5907 C.ar    1  UNL1        0.0077
     19 C         141.1713  137.4874  163.2209 C.ar    1  UNL1        0.0357
     20 S         141.3599  137.5217  164.7086 S.2     1  UNL1       -0.0792
     21 C         138.9441  144.7764  164.4480 C.3     1  UNL1        0.0921
     22 C         138.0582  144.4435  163.2843 C.3     1  UNL1        0.0374
     23 C         139.7587  143.5893  160.6333 C.3     1  UNL1        0.0896
     24 N         138.8891  142.6827  161.4529 N.3     1  UNL1       -0.2727
     25 C         138.6485  141.2243  161.1979 C.3     1  UNL1        0.0721
     26 C         137.7180  140.7155  162.2589 C.3     1  UNL1        0.0187
     27 C         137.3837  141.8595  163.1696 C.3     1  UNL1        0.0174
     28 C         138.1074  143.0753  162.6715 C.3     1  UNL1        0.0593
@<TRIPOS>BOND
     1    23    24    1
     2    24    25    1
     3    25    26    1
     4    26    27    1
     5    27    28    1
     6    28    22    1
     7    22    21    1
     8    21     1    1
     9     1     2    1
    10     2     3    1
    11     3     4    1
    12     4     5    1
    13     5     6   ar
    14     6     7   ar
    15     7    11    1
    16    11    13    1
    17    13    14    2
    18    13    16    1
    19    16    17   ar
    20    17    18   ar
    21    18    19   ar
    22    19    20   ar
    23     7     8   ar
    24     8     9   ar
    25     9    10   ar
    26    28    24    1
    27    10     1    1
    28    10     5   ar
    29    20    16   ar
    30    11    12    1
    31    14    15    1
@<TRIPOS>MOLECULE
*****
 28 31 0 0 0
SMALL
GASTEIGER

@<TRIPOS>ATOM
      1 N         138.5424  139.3014  164.4662 N.pl3   1  UNL1       -0.3077
      2 C         138.6257  138.1346  163.5273 C.3     1  UNL1        0.0911
      3 C         138.6050  138.3620  162.0448 C.3     1  UNL1        0.0261
      4 C         138.5010  139.7562  161.5013 C.3     1  UNL1        0.0295
      5 C         138.4177  140.9230  162.4402 C.ar    1  UNL1       -0.0054
      6 C         138.3137  142.3172  161.8967 C.ar    1  UNL1        0.0371
      7 C         138.2304  143.4839  162.8356 C.ar    1  UNL1        0.1354
      8 C         138.2510  143.2565  164.3182 C.ar    1  UNL1        0.0414
      9 C         138.3550  141.8623  164.8617 C.ar    1  UNL1        0.0177
     10 C         138.4384  140.6956  163.9227 C.ar    1  UNL1        0.0440
     11 N         138.1264  144.8781  162.2921 N.pl3   1  UNL1       -0.1990
     12 H         137.2426  145.2948  162.1716 H       1  UNL1        0.2985
     13 C         139.3689  145.6374  161.9322 C.2     1  UNL1        0.3224
     14 N         139.2675  146.9169  161.1559 N.2     1  UNL1       -0.0985
     15 H         138.3854  147.2583  160.8827 H       1  UNL1        0.3633
     16 C         140.7128  145.1172  162.3485 C.ar    1  UNL1        0.1114
     17 C         141.3526  145.3035  163.6923 C.ar    1  UNL1        0.0144
     18 C         142.6881  144.6208  163.6685 C.ar    1  UNL1        0.0077
     19 C         142.8736  144.0127  162.3099 C.ar    1  UNL1        0.0357
     20 S         141.6528  144.3195  161.4941 S.2     1  UNL1       -0.0792
     21 C         138.5631  139.0740  165.9488 C.3     1  UNL1        0.0921
     22 C         139.8327  139.2777  166.7211 C.3     1  UNL1        0.0374
     23 C         141.4767  142.0966  166.7392 C.3     1  UNL1        0.0896
     24 N         140.6302  141.5624  167.8563 N.3     1  UNL1       -0.2727
     25 C         140.3908  142.2302  169.1780 C.3     1  UNL1        0.0721
     26 C         139.4871  141.3472  169.9865 C.3     1  UNL1        0.0187
     27 C         139.1681  140.1337  169.1646 C.3     1  UNL1        0.0174
     28 C         139.8745  140.2667  167.8481 C.3     1  UNL1        0.0593
@<TRIPOS>BOND
     1    23    24    1
     2    24    25    1
     3    25    26    1
     4    26    27    1
     5    27    28    1
     6    28    22    1
     7    22    21    1
     8    21     1    1
     9     1     2    1
    10     2     3    1
    11     3     4    1
    12     4     5    1
    13     5     6   ar
    14     6     7   ar
    15     7    11    1
    16    11    13    1
    17    13    14    2
    18    13    16    1
    19    16    17   ar
    20    17    18   ar
    21    18    19   ar
    22    19    20   ar
    23     7     8   ar
    24     8     9   ar
    25     9    10   ar
    26    28    24    1
    27    10     1    1
    28    10     5   ar
    29    20    16   ar
    30    11    12    1
    31    14    15    1
@<TRIPOS>MOLECULE
*****
 28 31 0 0 0
SMALL
GASTEIGER

@<TRIPOS>ATOM
      1 N         140.8620  144.6517  163.7803 N.pl3   1  UNL1       -0.3077
      2 C         139.9187  145.3219  162.8258 C.3     1  UNL1        0.0911
      3 C         138.5302  144.7851  162.6426 C.3     1  UNL1        0.0261
      4 C         138.0849  143.5780  163.4138 C.3     1  UNL1        0.0295
      5 C         139.0282  142.9078  164.3683 C.ar    1  UNL1       -0.0054
      6 C         138.5829  141.7008  165.1395 C.ar    1  UNL1        0.0371
      7 C         139.5261  141.0306  166.0939 C.ar    1  UNL1        0.1354
      8 C         140.9148  141.5674  166.2772 C.ar    1  UNL1        0.0414
      9 C         141.3601  142.7744  165.5060 C.ar    1  UNL1        0.0177
     10 C         140.4167  143.4446  164.5515 C.ar    1  UNL1        0.0440
     11 N         139.0808  139.8235  166.8651 N.pl3   1  UNL1       -0.1990
     12 H         139.1004  139.8334  167.8494 H       1  UNL1        0.2985
     13 C         138.6057  138.6014  166.1367 C.2     1  UNL1        0.3224
     14 N         137.4878  137.7776  166.7039 N.2     1  UNL1       -0.0985
     15 H         137.0661  138.0390  167.5542 H       1  UNL1        0.3633
     16 C         139.2483  138.2031  164.8412 C.ar    1  UNL1        0.1114
     17 C         138.6654  138.3942  163.4724 C.ar    1  UNL1        0.0144
     18 C         139.6435  137.8530  162.4723 C.ar    1  UNL1        0.0077
     19 C         140.8311  137.3275  163.2229 C.ar    1  UNL1        0.0357
     20 S         140.5868  137.5438  164.6870 S.2     1  UNL1       -0.0792
     21 C         142.2507  145.1885  163.9635 C.3     1  UNL1        0.0921
     22 C         143.3198  144.8597  162.9641 C.3     1  UNL1        0.0374
     23 C         144.0264  142.7628  160.5655 C.3     1  UNL1        0.0896
     24 N         144.4388  142.6312  162.0016 N.3     1  UNL1       -0.2727
     25 C         145.2485  141.5126  162.5874 C.3     1  UNL1        0.0721
     26 C         145.4242  141.7850  164.0520 C.3     1  UNL1        0.0187
     27 C         144.7230  143.0720  164.3713 C.3     1  UNL1        0.0174
     28 C         144.1141  143.5950  163.1042 C.3     1  UNL1        0.0593
@<TRIPOS>BOND
     1    23    24    1
     2    24    25    1
     3    25    26    1
     4    26    27    1
     5    27    28    1
     6    28    22    1
     7    22    21    1
     8    21     1    1
     9     1     2    1
    10     2     3    1
    11     3     4    1
    12     4     5    1
    13     5     6   ar
    14     6     7   ar
    15     7    11    1
    16    11    13    1
    17    13    14    2
    18    13    16    1
    19    16    17   ar
    20    17    18   ar
    21    18    19   ar
    22    19    20   ar
    23     7     8   ar
    24     8     9   ar
    25     9    10   ar
    26    28    24    1
    27    10     1    1
    28    10     5   ar
    29    20    16   ar
    30    11    12    1
    31    14    15    1
@<TRIPOS>MOLECULE
*****
 28 31 0 0 0
SMALL
GASTEIGER

@<TRIPOS>ATOM
      1 N         138.9737  140.2822  166.2091 N.pl3   1  UNL1       -0.3077
      2 C         139.9443  140.3839  167.3482 C.3     1  UNL1        0.0911
      3 C         140.8096  141.6009  167.4898 C.3     1  UNL1        0.0261
      4 C         140.7043  142.7162  166.4924 C.3     1  UNL1        0.0295
      5 C         139.7337  142.6145  165.3532 C.ar    1  UNL1       -0.0054
      6 C         139.6285  143.7298  164.3557 C.ar    1  UNL1        0.0371
      7 C         138.6579  143.6281  163.2166 C.ar    1  UNL1        0.1354
      8 C         137.7926  142.4111  163.0749 C.ar    1  UNL1        0.0414
      9 C         137.8978  141.2958  164.0724 C.ar    1  UNL1        0.0177
     10 C         138.8685  141.3975  165.2116 C.ar    1  UNL1        0.0440
     11 N         138.5527  144.7435  162.2191 N.pl3   1  UNL1       -0.1990
     12 H         137.6719  145.0086  161.8683 H       1  UNL1        0.2985
     13 C         139.7894  145.4548  161.7562 C.2     1  UNL1        0.3224
     14 N         140.1710  146.7704  162.3673 N.2     1  UNL1       -0.0985
     15 H         139.6097  147.1670  163.0723 H       1  UNL1        0.3633
     16 C         140.6446  144.8506  160.6822 C.ar    1  UNL1        0.1114
     17 C         140.4499  145.0140  159.2038 C.ar    1  UNL1        0.0144
     18 C         141.5296  144.2413  158.5059 C.ar    1  UNL1        0.0077
     19 C         142.3916  143.6003  159.5528 C.ar    1  UNL1        0.0357
     20 S         141.8447  143.9769  160.8978 S.2     1  UNL1       -0.0792
     21 C         138.1084  139.0651  166.0674 C.3     1  UNL1        0.0921
     22 C         138.6631  137.8190  165.4434 C.3     1  UNL1        0.0374
     23 C         141.8843  138.0581  164.9785 C.3     1  UNL1        0.0896
     24 N         140.8401  138.0004  163.9032 N.3     1  UNL1       -0.2727
     25 C         141.0933  138.0425  162.4253 C.3     1  UNL1        0.0721
     26 C         139.7691  137.9586  161.7255 C.3     1  UNL1        0.0187
     27 C         138.6976  137.8647  162.7710 C.3     1  UNL1        0.0174
     28 C         139.3595  137.8905  164.1168 C.3     1  UNL1        0.0593
@<TRIPOS>BOND
     1    23    24    1
     2    24    25    1
     3    25    26    1
     4    26    27    1
     5    27    28    1
     6    28    22    1
     7    22    21    1
     8    21     1    1
     9     1     2    1
    10     2     3    1
    11     3     4    1
    12     4     5    1
    13     5     6   ar
    14     6     7   ar
    15     7    11    1
    16    11    13    1
    17    13    14    2
    18    13    16    1
    19    16    17   ar
    20    17    18   ar
    21    18    19   ar
    22    19    20   ar
    23     7     8   ar
    24     8     9   ar
    25     9    10   ar
    26    28    24    1
    27    10     1    1
    28    10     5   ar
    29    20    16   ar
    30    11    12    1
    31    14    15    1
@<TRIPOS>MOLECULE
*****
 28 31 0 0 0
SMALL
GASTEIGER

@<TRIPOS>ATOM
      1 N         143.4748  139.8378  163.4103 N.pl3   1  UNL1       -0.3077
      2 C         144.8704  139.9554  163.9475 C.3     1  UNL1        0.0911
      3 C         145.5979  141.2645  163.8648 C.3     1  UNL1        0.0261
      4 C         144.9299  142.4560  163.2449 C.3     1  UNL1        0.0295
      5 C         143.5344  142.3383  162.7077 C.ar    1  UNL1       -0.0054
      6 C         142.8664  143.5297  162.0879 C.ar    1  UNL1        0.0371
      7 C         141.4709  143.4121  161.5507 C.ar    1  UNL1        0.1354
      8 C         140.7432  142.1029  161.6333 C.ar    1  UNL1        0.0414
      9 C         141.4112  140.9115  162.2532 C.ar    1  UNL1        0.0177
     10 C         142.8068  141.0292  162.7904 C.ar    1  UNL1        0.0440
     11 N         140.8029  144.6035  160.9308 N.pl3   1  UNL1       -0.1990
     12 H         141.0197  144.8639  160.0064 H       1  UNL1        0.2985
     13 C         139.8046  145.3983  161.7192 C.2     1  UNL1        0.3224
     14 N         139.3500  146.7377  161.2202 N.2     1  UNL1       -0.0985
     15 H         139.7068  147.0952  160.3751 H       1  UNL1        0.3633
     16 C         139.2610  144.8536  163.0068 C.ar    1  UNL1        0.1114
     17 C         139.9609  144.8628  164.3334 C.ar    1  UNL1        0.0144
     18 C         139.0545  144.2190  165.3403 C.ar    1  UNL1        0.0077
     19 C         137.7943  143.8119  164.6360 C.ar    1  UNL1        0.0357
     20 S         137.9219  144.2041  163.1938 S.2     1  UNL1       -0.0792
     21 C         142.7472  138.5286  163.4930 C.3     1  UNL1        0.0921
     22 C         142.0970  138.1119  164.7789 C.3     1  UNL1        0.0374
     23 C         141.8508  140.9351  166.3969 C.3     1  UNL1        0.0896
     24 N         140.7087  140.0640  165.9649 N.3     1  UNL1       -0.2727
     25 C         139.2529  140.3377  166.2007 C.3     1  UNL1        0.0721
     26 C         138.4662  139.2091  165.6027 C.3     1  UNL1        0.0187
     27 C         139.4359  138.2380  164.9973 C.3     1  UNL1        0.0174
     28 C         140.8219  138.7663  165.2211 C.3     1  UNL1        0.0593
@<TRIPOS>BOND
     1    23    24    1
     2    24    25    1
     3    25    26    1
     4    26    27    1
     5    27    28    1
     6    28    22    1
     7    22    21    1
     8    21     1    1
     9     1     2    1
    10     2     3    1
    11     3     4    1
    12     4     5    1
    13     5     6   ar
    14     6     7   ar
    15     7    11    1
    16    11    13    1
    17    13    14    2
    18    13    16    1
    19    16    17   ar
    20    17    18   ar
    21    18    19   ar
    22    19    20   ar
    23     7     8   ar
    24     8     9   ar
    25     9    10   ar
    26    28    24    1
    27    10     1    1
    28    10     5   ar
    29    20    16   ar
    30    11    12    1
    31    14    15    1
@<TRIPOS>MOLECULE
*****
 28 31 0 0 0
SMALL
GASTEIGER

@<TRIPOS>ATOM
      1 N         143.9815  140.0870  162.1895 N.pl3   1  UNL1       -0.3077
      2 C         144.5823  139.5976  163.4738 C.3     1  UNL1        0.0911
      3 C         144.5480  140.4658  164.6965 C.3     1  UNL1        0.0261
      4 C         143.9128  141.8233  164.6349 C.3     1  UNL1        0.0295
      5 C         143.3120  142.3126  163.3506 C.ar    1  UNL1       -0.0054
      6 C         142.6768  143.6701  163.2890 C.ar    1  UNL1        0.0371
      7 C         142.0760  144.1594  162.0046 C.ar    1  UNL1        0.1354
      8 C         142.1103  143.2912  160.7818 C.ar    1  UNL1        0.0414
      9 C         142.7455  141.9337  160.8435 C.ar    1  UNL1        0.0177
     10 C         143.3463  141.4444  162.1279 C.ar    1  UNL1        0.0440
     11 N         141.4408  145.5169  161.9430 N.pl3   1  UNL1       -0.1990
     12 H         142.0042  146.3212  161.8721 H       1  UNL1        0.2985
     13 C         139.9474  145.6490  161.9894 C.2     1  UNL1        0.3224
     14 N         139.2675  146.7460  161.2251 N.2     1  UNL1       -0.0985
     15 H         139.8014  147.3793  160.6931 H       1  UNL1        0.3633
     16 C         139.1339  144.6840  162.8000 C.ar    1  UNL1        0.1114
     17 C         138.9357  144.7290  164.2861 C.ar    1  UNL1        0.0144
     18 C         138.0551  143.5774  164.6714 C.ar    1  UNL1        0.0077
     19 C         137.7091  142.8207  163.4234 C.ar    1  UNL1        0.0357
     20 S         138.3758  143.5046  162.2668 S.2     1  UNL1       -0.0792
     21 C         144.0158  139.2188  160.9667 C.3     1  UNL1        0.0921
     22 C         143.2142  137.9516  160.9239 C.3     1  UNL1        0.0374
     23 C         140.5181  138.7818  159.2835 C.3     1  UNL1        0.0896
     24 N         140.5747  138.3130  160.7072 N.3     1  UNL1       -0.2727
     25 C         139.4019  138.1435  161.6269 C.3     1  UNL1        0.0721
     26 C         139.9164  137.6572  162.9494 C.3     1  UNL1        0.0187
     27 C         141.4071  137.5261  162.8469 C.3     1  UNL1        0.0174
     28 C         141.8140  137.9314  161.4612 C.3     1  UNL1        0.0593
@<TRIPOS>BOND
     1    23    24    1
     2    24    25    1
     3    25    26    1
     4    26    27    1
     5    27    28    1
     6    28    22    1
     7    22    21    1
     8    21     1    1
     9     1     2    1
    10     2     3    1
    11     3     4    1
    12     4     5    1
    13     5     6   ar
    14     6     7   ar
    15     7    11    1
    16    11    13    1
    17    13    14    2
    18    13    16    1
    19    16    17   ar
    20    17    18   ar
    21    18    19   ar
    22    19    20   ar
    23     7     8   ar
    24     8     9   ar
    25     9    10   ar
    26    28    24    1
    27    10     1    1
    28    10     5   ar
    29    20    16   ar
    30    11    12    1
    31    14    15    1
@<TRIPOS>MOLECULE
*****
 28 31 0 0 0
SMALL
GASTEIGER

@<TRIPOS>ATOM
      1 N         142.9854  139.9599  165.7692 N.pl3   1  UNL1       -0.3077
      2 C         144.1674  139.2753  165.1496 C.3     1  UNL1        0.0911
      3 C         144.9176  139.9382  164.0327 C.3     1  UNL1        0.0261
      4 C         144.4858  141.2859  163.5353 C.3     1  UNL1        0.0295
      5 C         143.3038  141.9706  164.1549 C.ar    1  UNL1       -0.0054
      6 C         142.8719  143.3182  163.6576 C.ar    1  UNL1        0.0371
      7 C         141.6899  144.0029  164.2771 C.ar    1  UNL1        0.1354
      8 C         140.9396  143.3399  165.3941 C.ar    1  UNL1        0.0414
      9 C         141.3714  141.9923  165.8915 C.ar    1  UNL1        0.0177
     10 C         142.5535  141.3076  165.2719 C.ar    1  UNL1        0.0440
     11 N         141.2581  145.3505  163.7798 N.pl3   1  UNL1       -0.1990
     12 H         141.6290  146.1671  164.1858 H       1  UNL1        0.2985
     13 C         140.2611  145.4540  162.6639 C.2     1  UNL1        0.3224
     14 N         139.9816  146.7839  162.0289 N.2     1  UNL1       -0.0985
     15 H         140.4525  147.5888  162.3445 H       1  UNL1        0.3633
     16 C         139.5436  144.2277  162.1831 C.ar    1  UNL1        0.1114
     17 C         140.0228  143.2866  161.1179 C.ar    1  UNL1        0.0144
     18 C         138.9963  142.2043  160.9594 C.ar    1  UNL1        0.0077
     19 C         137.8826  142.4766  161.9267 C.ar    1  UNL1        0.0357
     20 S         138.2209  143.7271  162.6829 S.2     1  UNL1       -0.0792
     21 C         142.2351  139.2970  166.8862 C.3     1  UNL1        0.0921
     22 C         142.6733  139.4975  168.3067 C.3     1  UNL1        0.0374
     23 C         139.7153  140.4253  169.3258 C.3     1  UNL1        0.0896
     24 N         140.9876  141.2033  169.4871 N.3     1  UNL1       -0.2727
     25 C         141.1236  142.5443  170.1452 C.3     1  UNL1        0.0721
     26 C         142.5674  142.9467  170.0835 C.3     1  UNL1        0.0187
     27 C         143.3236  141.8543  169.3873 C.3     1  UNL1        0.0174
     28 C         142.3472  140.7768  169.0187 C.3     1  UNL1        0.0593
@<TRIPOS>BOND
     1    23    24    1
     2    24    25    1
     3    25    26    1
     4    26    27    1
     5    27    28    1
     6    28    22    1
     7    22    21    1
     8    21     1    1
     9     1     2    1
    10     2     3    1
    11     3     4    1
    12     4     5    1
    13     5     6   ar
    14     6     7   ar
    15     7    11    1
    16    11    13    1
    17    13    14    2
    18    13    16    1
    19    16    17   ar
    20    17    18   ar
    21    18    19   ar
    22    19    20   ar
    23     7     8   ar
    24     8     9   ar
    25     9    10   ar
    26    28    24    1
    27    10     1    1
    28    10     5   ar
    29    20    16   ar
    30    11    12    1
    31    14    15    1
