@<TRIPOS>MOLECULE
*****
 41 45 0 0 0
SMALL
GASTEIGER

@<TRIPOS>ATOM
      1 C         141.3814  141.2227  163.0605 C.3     1  UNL1        0.0792
      2 C         141.9839  139.2719  164.6672 C.ar    1  UNL1        0.1351
      3 C         142.2961  138.7753  166.0478 C.ar    1  UNL1        0.0366
      4 C         142.3180  139.7329  167.2022 C.ar    1  UNL1        0.0030
      5 C         142.6302  139.2363  168.5827 C.ar    1  UNL1        0.0006
      6 C         142.6521  140.1939  169.7371 C.ar    1  UNL1        0.0067
      7 C         142.3618  141.6480  169.5110 C.ar    1  UNL1        0.0346
      8 BR        142.3837  142.6056  170.6653 Br      1  UNL1       -0.0490
      9 C         142.0496  142.1446  168.1304 C.ar    1  UNL1        0.0067
     10 C         142.0277  141.1871  166.9760 C.ar    1  UNL1        0.0004
     11 C         141.7155  141.6836  165.5955 C.ar    1  UNL1       -0.0009
     12 C         141.6936  140.7261  164.4411 C.ar    1  UNL1        0.0182
     13 C         140.9824  137.1784  163.4992 C.3     1  UNL1        0.2525
     14 O         141.9620  138.3144  163.5128 O.3     1  UNL1       -0.4717
     15 C         140.0224  140.9906  162.4695 C.ar    1  UNL1        0.0245
     16 C         138.7943  141.3878  163.2338 C.ar    1  UNL1        0.0200
     17 C         137.4353  141.1556  162.6428 C.ar    1  UNL1        0.1019
     18 N         137.3045  140.5264  161.2874 N.ar    1  UNL1       -0.2076
     19 C         138.5325  140.1293  160.5231 C.ar    1  UNL1        0.2598
     20 C         139.8915  140.3614  161.1142 C.ar    1  UNL1        0.1879
     21 O         138.4016  139.5001  159.1678 O.3     1  UNL1       -0.4541
     22 C         138.5493  140.3397  157.9336 C.3     1  UNL1        0.2543
     23 O         141.1195  139.9643  160.3499 O.3     1  UNL1       -0.4670
     24 C         141.3998  138.5154  160.0809 C.3     1  UNL1        0.2527
     25 C         142.4281  141.9514  162.2710 C.3     1  UNL1        0.1160
     26 O         143.2444  140.6954  162.1940 O.3     1  UNL1       -0.3820
     27 H         143.9808  140.8258  161.5762 H       1  UNL1        0.2107
     28 C         141.6118  143.2074  162.3480 C.ar    1  UNL1        0.0054
     29 C         141.3823  143.8728  163.6727 C.ar    1  UNL1       -0.0018
     30 C         140.5659  145.1289  163.7496 C.ar    1  UNL1        0.0029
     31 C         139.9790  145.7195  162.5020 C.ar    1  UNL1        0.0375
     32 C         140.2085  145.0542  161.1773 C.ar    1  UNL1        0.1452
     33 O         139.7600  145.4013  159.7887 O.2     1  UNL1       -0.4504
     34 C         140.2992  144.3599  158.8535 C.ar    1  UNL1        0.1796
     35 C         141.0809  143.3690  159.6642 C.ar    1  UNL1        0.0435
     36 C         141.0249  143.7982  161.1003 C.ar    1  UNL1        0.0359
     37 C         143.4748  142.6801  161.4816 C.3     1  UNL1        0.0491
     38 C         144.6224  143.3399  162.1871 C.3     1  UNL1        0.0750
     39 N         145.0538  142.8504  163.5378 N.3     1  UNL1       -0.2702
     40 C         144.6537  143.6040  164.7715 C.3     1  UNL1        0.0897
     41 C         145.8851  141.6074  163.6547 C.3     1  UNL1        0.0897
@<TRIPOS>BOND
     1    13    14    1
     2    14     2    1
     3     2     3   ar
     4     3     4   ar
     5     4     5   ar
     6     5     6   ar
     7     6     7   ar
     8     7     8    1
     9     7     9   ar
    10     9    10   ar
    11    10    11   ar
    12    11    12   ar
    13     1    12    1
    14     1    15    1
    15    15    16   ar
    16    16    17   ar
    17    17    18   ar
    18    18    19   ar
    19    19    21    1
    20    21    22    1
    21    19    20   ar
    22    20    23    1
    23    23    24    1
    24     1    25    1
    25    25    26    1
    26    25    37    1
    27    37    38    1
    28    38    39    1
    29    39    40    1
    30    39    41    1
    31    25    28    1
    32    28    29   ar
    33    29    30   ar
    34    30    31   ar
    35    31    32   ar
    36    32    33   ar
    37    33    34   ar
    38    34    35   ar
    39    35    36   ar
    40    12     2   ar
    41    20    15   ar
    42    36    28   ar
    43    10     4   ar
    44    36    32   ar
    45    26    27    1
@<TRIPOS>MOLECULE
*****
 41 45 0 0 0
SMALL
GASTEIGER

@<TRIPOS>ATOM
      1 C         141.6980  141.2904  162.8239 C.3     1  UNL1        0.0792
      2 C         143.2336  142.2630  164.6803 C.ar    1  UNL1        0.1351
      3 C         143.4849  142.5793  166.1249 C.ar    1  UNL1        0.0366
      4 C         142.4518  142.2390  167.1578 C.ar    1  UNL1        0.0030
      5 C         142.7030  142.5552  168.6024 C.ar    1  UNL1        0.0006
      6 C         141.6699  142.2149  169.6353 C.ar    1  UNL1        0.0067
      7 C         140.3855  141.5584  169.2236 C.ar    1  UNL1        0.0346
      8 BR        139.3524  141.2181  170.2565 Br      1  UNL1       -0.0490
      9 C         140.1343  141.2422  167.7790 C.ar    1  UNL1        0.0067
     10 C         141.1674  141.5825  166.7461 C.ar    1  UNL1        0.0004
     11 C         140.9162  141.2663  165.3015 C.ar    1  UNL1       -0.0009
     12 C         141.9493  141.6066  164.2686 C.ar    1  UNL1        0.0182
     13 C         145.6186  141.9550  163.6967 C.3     1  UNL1        0.2525
     14 O         144.2667  142.6033  163.6474 O.3     1  UNL1       -0.4717
     15 C         140.5629  141.9499  162.0983 C.ar    1  UNL1        0.0245
     16 C         139.2653  141.2202  161.9146 C.ar    1  UNL1        0.0200
     17 C         138.1302  141.8797  161.1890 C.ar    1  UNL1        0.1019
     18 N         138.2927  143.2689  160.6470 N.ar    1  UNL1       -0.2076
     19 C         139.5903  143.9985  160.8306 C.ar    1  UNL1        0.2598
     20 C         140.7254  143.3390  161.5563 C.ar    1  UNL1        0.1879
     21 O         139.7528  145.3877  160.2886 O.3     1  UNL1       -0.4541
     22 C         140.3968  145.6002  158.9506 C.3     1  UNL1        0.2543
     23 O         142.0230  144.0687  161.7399 O.3     1  UNL1       -0.4670
     24 C         142.1355  145.1506  162.7728 C.3     1  UNL1        0.2527
     25 C         142.5819  140.3147  162.1050 C.3     1  UNL1        0.1160
     26 O         143.1487  141.4340  161.2829 O.3     1  UNL1       -0.3820
     27 H         143.9088  141.1094  160.7752 H       1  UNL1        0.2107
     28 C         142.0151  139.1955  162.9272 C.ar    1  UNL1        0.0054
     29 C         140.7200  138.5527  162.5277 C.ar    1  UNL1       -0.0018
     30 C         140.1532  137.4334  163.3499 C.ar    1  UNL1        0.0029
     31 C         140.8814  136.9569  164.5715 C.ar    1  UNL1        0.0375
     32 C         142.1765  137.5996  164.9710 C.ar    1  UNL1        0.1452
     33 O         143.1124  137.3450  166.1153 O.2     1  UNL1       -0.4504
     34 C         144.2576  138.3069  166.0003 C.ar    1  UNL1        0.1796
     35 C         144.0295  139.1561  164.7849 C.ar    1  UNL1        0.0435
     36 C         142.7434  138.7189  164.1489 C.ar    1  UNL1        0.0359
     37 C         143.4657  139.3391  161.3861 C.3     1  UNL1        0.0491
     38 C         144.2108  139.7669  160.1566 C.3     1  UNL1        0.0750
     39 N         143.6340  139.4975  158.7983 N.3     1  UNL1       -0.2702
     40 C         144.0188  140.3627  157.6350 C.3     1  UNL1        0.0897
     41 C         142.6725  138.3628  158.6034 C.3     1  UNL1        0.0897
@<TRIPOS>BOND
     1    13    14    1
     2    14     2    1
     3     2     3   ar
     4     3     4   ar
     5     4     5   ar
     6     5     6   ar
     7     6     7   ar
     8     7     8    1
     9     7     9   ar
    10     9    10   ar
    11    10    11   ar
    12    11    12   ar
    13     1    12    1
    14     1    15    1
    15    15    16   ar
    16    16    17   ar
    17    17    18   ar
    18    18    19   ar
    19    19    21    1
    20    21    22    1
    21    19    20   ar
    22    20    23    1
    23    23    24    1
    24     1    25    1
    25    25    26    1
    26    25    37    1
    27    37    38    1
    28    38    39    1
    29    39    40    1
    30    39    41    1
    31    25    28    1
    32    28    29   ar
    33    29    30   ar
    34    30    31   ar
    35    31    32   ar
    36    32    33   ar
    37    33    34   ar
    38    34    35   ar
    39    35    36   ar
    40    12     2   ar
    41    20    15   ar
    42    36    28   ar
    43    10     4   ar
    44    36    32   ar
    45    26    27    1
@<TRIPOS>MOLECULE
*****
 41 45 0 0 0
SMALL
GASTEIGER

@<TRIPOS>ATOM
      1 C         141.5065  141.3926  164.0514 C.3     1  UNL1        0.0792
      2 C         143.3433  142.9241  163.0364 C.ar    1  UNL1        0.1351
      3 C         144.2332  143.3001  161.8888 C.ar    1  UNL1        0.0366
      4 C         144.1760  142.5203  160.6086 C.ar    1  UNL1        0.0030
      5 C         145.0657  142.8962  159.4611 C.ar    1  UNL1        0.0006
      6 C         145.0085  142.1164  158.1810 C.ar    1  UNL1        0.0067
      7 C         144.0615  140.9608  158.0484 C.ar    1  UNL1        0.0346
      8 BR        144.0043  140.1810  156.7683 Br      1  UNL1       -0.0490
      9 C         143.1717  140.5848  159.1960 C.ar    1  UNL1        0.0067
     10 C         143.2289  141.3646  160.4761 C.ar    1  UNL1        0.0004
     11 C         142.3391  140.9887  161.6237 C.ar    1  UNL1       -0.0009
     12 C         142.3963  141.7685  162.9038 C.ar    1  UNL1        0.0182
     13 C         144.5780  143.5544  165.2337 C.3     1  UNL1        0.2525
     14 O         143.4006  143.7039  164.3165 O.3     1  UNL1       -0.4717
     15 C         142.0644  140.6241  165.2126 C.ar    1  UNL1        0.0245
     16 C         142.6236  139.2482  165.0022 C.ar    1  UNL1        0.0200
     17 C         143.1815  138.4798  166.1634 C.ar    1  UNL1        0.1019
     18 N         143.1801  139.0873  167.5349 N.ar    1  UNL1       -0.2076
     19 C         142.6209  140.4631  167.7452 C.ar    1  UNL1        0.2598
     20 C         142.0631  141.2316  166.5841 C.ar    1  UNL1        0.1879
     21 O         142.6196  141.0705  169.1167 O.3     1  UNL1       -0.4541
     22 C         143.6179  142.1339  169.4670 C.3     1  UNL1        0.2543
     23 O         141.5038  142.6074  166.7944 O.3     1  UNL1       -0.4670
     24 C         140.3461  142.8121  167.7260 C.3     1  UNL1        0.2527
     25 C         140.0588  141.7850  164.0378 C.3     1  UNL1        0.1160
     26 O         140.4452  143.2176  164.2581 O.3     1  UNL1       -0.3820
     27 H         139.6646  143.7832  164.1503 H       1  UNL1        0.2107
     28 C         139.6725  140.3525  163.8175 C.ar    1  UNL1        0.0054
     29 C         139.9081  139.7089  162.4832 C.ar    1  UNL1       -0.0018
     30 C         139.5217  138.2763  162.2630 C.ar    1  UNL1        0.0029
     31 C         138.8999  137.4874  163.3769 C.ar    1  UNL1        0.0375
     32 C         138.6644  138.1310  164.7112 C.ar    1  UNL1        0.1452
     33 O         138.0742  137.6086  165.9874 O.2     1  UNL1       -0.4504
     34 C         138.0958  138.7182  166.9964 C.ar    1  UNL1        0.1796
     35 C         138.6993  139.9265  166.3438 C.ar    1  UNL1        0.0435
     36 C         139.0507  139.5635  164.9315 C.ar    1  UNL1        0.0359
     37 C         138.6112  142.1775  164.0242 C.3     1  UNL1        0.0491
     38 C         138.1404  143.2758  163.1175 C.3     1  UNL1        0.0750
     39 N         138.7032  143.3979  161.7324 N.3     1  UNL1       -0.2702
     40 C         138.2919  142.4252  160.6673 C.3     1  UNL1        0.0897
     41 C         139.6773  144.4928  161.4126 C.3     1  UNL1        0.0897
@<TRIPOS>BOND
     1    13    14    1
     2    14     2    1
     3     2     3   ar
     4     3     4   ar
     5     4     5   ar
     6     5     6   ar
     7     6     7   ar
     8     7     8    1
     9     7     9   ar
    10     9    10   ar
    11    10    11   ar
    12    11    12   ar
    13     1    12    1
    14     1    15    1
    15    15    16   ar
    16    16    17   ar
    17    17    18   ar
    18    18    19   ar
    19    19    21    1
    20    21    22    1
    21    19    20   ar
    22    20    23    1
    23    23    24    1
    24     1    25    1
    25    25    26    1
    26    25    37    1
    27    37    38    1
    28    38    39    1
    29    39    40    1
    30    39    41    1
    31    25    28    1
    32    28    29   ar
    33    29    30   ar
    34    30    31   ar
    35    31    32   ar
    36    32    33   ar
    37    33    34   ar
    38    34    35   ar
    39    35    36   ar
    40    12     2   ar
    41    20    15   ar
    42    36    28   ar
    43    10     4   ar
    44    36    32   ar
    45    26    27    1
@<TRIPOS>MOLECULE
*****
 41 45 0 0 0
SMALL
GASTEIGER

@<TRIPOS>ATOM
      1 C         141.7437  141.4022  162.8824 C.3     1  UNL1        0.0792
      2 C         143.4895  142.0626  164.6896 C.ar    1  UNL1        0.1351
      3 C         143.8375  142.3265  166.1247 C.ar    1  UNL1        0.0366
      4 C         142.7874  142.1938  167.1876 C.ar    1  UNL1        0.0030
      5 C         143.1352  142.4577  168.6226 C.ar    1  UNL1        0.0006
      6 C         142.0852  142.3250  169.6855 C.ar    1  UNL1        0.0067
      7 C         140.6872  141.9285  169.3134 C.ar    1  UNL1        0.0346
      8 BR        139.6372  141.7959  170.3763 Br      1  UNL1       -0.0490
      9 C         140.3393  141.6647  167.8783 C.ar    1  UNL1        0.0067
     10 C         141.3894  141.7973  166.8154 C.ar    1  UNL1        0.0004
     11 C         141.0415  141.5334  165.3804 C.ar    1  UNL1       -0.0009
     12 C         142.0916  141.6661  164.3175 C.ar    1  UNL1        0.0182
     13 C         145.7589  141.3223  163.6640 C.3     1  UNL1        0.2525
     14 O         144.5396  142.1953  163.6267 O.3     1  UNL1       -0.4717
     15 C         140.6914  142.2267  162.2020 C.ar    1  UNL1        0.0245
     16 C         139.2665  141.7580  162.1843 C.ar    1  UNL1        0.0200
     17 C         138.2142  142.5825  161.5039 C.ar    1  UNL1        0.1019
     18 N         138.5868  143.8756  160.8412 N.ar    1  UNL1       -0.2076
     19 C         140.0116  144.3442  160.8589 C.ar    1  UNL1        0.2598
     20 C         141.0639  143.5197  161.5393 C.ar    1  UNL1        0.1879
     21 O         140.3841  145.6372  160.1962 O.3     1  UNL1       -0.4541
     22 C         140.9127  145.6356  158.7925 C.3     1  UNL1        0.2543
     23 O         142.4887  143.9883  161.5570 O.3     1  UNL1       -0.4670
     24 C         142.9532  144.9366  162.6225 C.3     1  UNL1        0.2527
     25 C         142.4480  140.3139  162.1278 C.3     1  UNL1        0.1160
     26 O         143.0818  141.3414  161.2376 O.3     1  UNL1       -0.3820
     27 H         143.7574  140.9180  160.6852 H       1  UNL1        0.2107
     28 C         141.8143  139.2865  163.0181 C.ar    1  UNL1        0.0054
     29 C         142.5154  138.8415  164.2673 C.ar    1  UNL1       -0.0018
     30 C         141.8816  137.8139  165.1576 C.ar    1  UNL1        0.0029
     31 C         140.5467  137.2315  164.7987 C.ar    1  UNL1        0.0375
     32 C         139.8456  137.6765  163.5495 C.ar    1  UNL1        0.1452
     33 O         138.5318  137.2835  162.9417 O.2     1  UNL1       -0.4504
     34 C         138.3536  138.0681  161.6757 C.ar    1  UNL1        0.1796
     35 C         139.5573  138.9460  161.5012 C.ar    1  UNL1        0.0435
     36 C         140.4793  138.7039  162.6593 C.ar    1  UNL1        0.0359
     37 C         143.1524  139.2256  161.3732 C.3     1  UNL1        0.0491
     38 C         144.1040  139.5745  160.2675 C.3     1  UNL1        0.0750
     39 N         143.6650  139.4640  158.8374 N.3     1  UNL1       -0.2702
     40 C         142.7364  138.3621  158.4209 C.3     1  UNL1        0.0897
     41 C         144.1546  140.4555  157.8239 C.3     1  UNL1        0.0897
@<TRIPOS>BOND
     1    13    14    1
     2    14     2    1
     3     2     3   ar
     4     3     4   ar
     5     4     5   ar
     6     5     6   ar
     7     6     7   ar
     8     7     8    1
     9     7     9   ar
    10     9    10   ar
    11    10    11   ar
    12    11    12   ar
    13     1    12    1
    14     1    15    1
    15    15    16   ar
    16    16    17   ar
    17    17    18   ar
    18    18    19   ar
    19    19    21    1
    20    21    22    1
    21    19    20   ar
    22    20    23    1
    23    23    24    1
    24     1    25    1
    25    25    26    1
    26    25    37    1
    27    37    38    1
    28    38    39    1
    29    39    40    1
    30    39    41    1
    31    25    28    1
    32    28    29   ar
    33    29    30   ar
    34    30    31   ar
    35    31    32   ar
    36    32    33   ar
    37    33    34   ar
    38    34    35   ar
    39    35    36   ar
    40    12     2   ar
    41    20    15   ar
    42    36    28   ar
    43    10     4   ar
    44    36    32   ar
    45    26    27    1
@<TRIPOS>MOLECULE
*****
 41 45 0 0 0
SMALL
GASTEIGER

@<TRIPOS>ATOM
      1 C         141.6972  141.4080  163.8399 C.3     1  UNL1        0.0792
      2 C         142.8119  139.8269  165.5742 C.ar    1  UNL1        0.1351
      3 C         143.0070  139.3888  166.9955 C.ar    1  UNL1        0.0366
      4 C         142.2825  140.0936  168.1038 C.ar    1  UNL1        0.0030
      5 C         142.4775  139.6555  169.5250 C.ar    1  UNL1        0.0006
      6 C         141.7530  140.3604  170.6333 C.ar    1  UNL1        0.0067
      7 C         140.8335  141.5034  170.3203 C.ar    1  UNL1        0.0346
      8 BR        140.1090  142.2082  171.4286 Br      1  UNL1       -0.0490
      9 C         140.6383  141.9415  168.8990 C.ar    1  UNL1        0.0067
     10 C         141.3628  141.2367  167.7907 C.ar    1  UNL1        0.0004
     11 C         141.1678  141.6748  166.3695 C.ar    1  UNL1       -0.0009
     12 C         141.8923  140.9699  165.2612 C.ar    1  UNL1        0.0182
     13 C         145.0127  139.3208  164.2896 C.3     1  UNL1        0.2525
     14 O         143.5364  139.1221  164.4659 O.3     1  UNL1       -0.4717
     15 C         142.6852  142.3372  163.1992 C.ar    1  UNL1        0.0245
     16 C         143.0210  143.6435  163.8555 C.ar    1  UNL1        0.0200
     17 C         144.0090  144.5727  163.2148 C.ar    1  UNL1        0.1019
     18 N         144.6613  144.1954  161.9177 N.ar    1  UNL1       -0.2076
     19 C         144.3255  142.8891  161.2615 C.ar    1  UNL1        0.2598
     20 C         143.3375  141.9600  161.9022 C.ar    1  UNL1        0.1879
     21 O         144.9778  142.5119  159.9645 O.3     1  UNL1       -0.4541
     22 C         144.2374  142.6918  158.6724 C.3     1  UNL1        0.2543
     23 O         143.0017  140.6536  161.2459 O.3     1  UNL1       -0.4670
     24 C         144.0797  139.6410  160.9957 C.3     1  UNL1        0.2527
     25 C         140.5141  140.9171  163.0594 C.3     1  UNL1        0.1160
     26 O         141.1026  139.5376  163.0352 O.3     1  UNL1       -0.3820
     27 H         140.4473  138.9126  162.6874 H       1  UNL1        0.2107
     28 C         139.9256  142.2966  163.0837 C.ar    1  UNL1        0.0054
     29 C         139.3376  142.8389  164.3526 C.ar    1  UNL1       -0.0018
     30 C         138.7491  144.2185  164.3768 C.ar    1  UNL1        0.0029
     31 C         138.7486  145.0557  163.1322 C.ar    1  UNL1        0.0375
     32 C         139.3367  144.5133  161.8633 C.ar    1  UNL1        0.1452
     33 O         139.4775  145.1015  160.4906 O.2     1  UNL1       -0.4504
     34 C         140.1530  144.0855  159.6181 C.ar    1  UNL1        0.1796
     35 C         140.4297  142.8694  160.4514 C.ar    1  UNL1        0.0435
     36 C         139.9252  143.1338  161.8390 C.ar    1  UNL1        0.0359
     37 C         139.3310  140.4261  162.2789 C.3     1  UNL1        0.0491
     38 C         138.1801  139.7780  162.9898 C.3     1  UNL1        0.0750
     39 N         138.4247  138.9620  164.2245 N.3     1  UNL1       -0.2702
     40 C         138.2062  139.5677  165.5792 C.3     1  UNL1        0.0897
     41 C         138.8879  137.5404  164.1044 C.3     1  UNL1        0.0897
@<TRIPOS>BOND
     1    13    14    1
     2    14     2    1
     3     2     3   ar
     4     3     4   ar
     5     4     5   ar
     6     5     6   ar
     7     6     7   ar
     8     7     8    1
     9     7     9   ar
    10     9    10   ar
    11    10    11   ar
    12    11    12   ar
    13     1    12    1
    14     1    15    1
    15    15    16   ar
    16    16    17   ar
    17    17    18   ar
    18    18    19   ar
    19    19    21    1
    20    21    22    1
    21    19    20   ar
    22    20    23    1
    23    23    24    1
    24     1    25    1
    25    25    26    1
    26    25    37    1
    27    37    38    1
    28    38    39    1
    29    39    40    1
    30    39    41    1
    31    25    28    1
    32    28    29   ar
    33    29    30   ar
    34    30    31   ar
    35    31    32   ar
    36    32    33   ar
    37    33    34   ar
    38    34    35   ar
    39    35    36   ar
    40    12     2   ar
    41    20    15   ar
    42    36    28   ar
    43    10     4   ar
    44    36    32   ar
    45    26    27    1
@<TRIPOS>MOLECULE
*****
 41 45 0 0 0
SMALL
GASTEIGER

@<TRIPOS>ATOM
      1 C         141.7173  141.5385  162.3720 C.3     1  UNL1        0.0792
      2 C         143.3514  142.1757  164.2887 C.ar    1  UNL1        0.1351
      3 C         143.6467  142.3099  165.7533 C.ar    1  UNL1        0.0366
      4 C         142.6031  141.9409  166.7656 C.ar    1  UNL1        0.0030
      5 C         142.8983  142.0750  168.2301 C.ar    1  UNL1        0.0006
      6 C         141.8548  141.7061  169.2425 C.ar    1  UNL1        0.0067
      7 C         140.5160  141.2030  168.7903 C.ar    1  UNL1        0.0346
      8 BR        139.4724  140.8340  169.8027 Br      1  UNL1       -0.0490
      9 C         140.2207  141.0688  167.3257 C.ar    1  UNL1        0.0067
     10 C         141.2643  141.4378  166.3134 C.ar    1  UNL1        0.0004
     11 C         140.9690  141.3037  164.8489 C.ar    1  UNL1       -0.0009
     12 C         142.0126  141.6726  163.8366 C.ar    1  UNL1        0.0182
     13 C         145.6544  141.7369  163.1689 C.3     1  UNL1        0.2525
     14 O         144.3950  142.5447  163.2764 O.3     1  UNL1       -0.4717
     15 C         142.2874  140.3896  161.5941 C.ar    1  UNL1        0.0245
     16 C         142.0852  138.9836  162.0763 C.ar    1  UNL1        0.0200
     17 C         142.6552  137.8347  161.2985 C.ar    1  UNL1        0.1019
     18 N         143.4275  138.0917  160.0385 N.ar    1  UNL1       -0.2076
     19 C         143.6297  139.4976  159.5563 C.ar    1  UNL1        0.2598
     20 C         143.0596  140.6466  160.3342 C.ar    1  UNL1        0.1879
     21 O         144.4019  139.7547  158.2964 O.3     1  UNL1       -0.4541
     22 C         143.6745  139.9974  157.0072 C.3     1  UNL1        0.2543
     23 O         143.2618  142.0525  159.8520 O.3     1  UNL1       -0.4670
     24 C         144.6427  142.6358  159.7987 C.3     1  UNL1        0.2527
     25 C         140.8520  142.5532  161.6853 C.3     1  UNL1        0.1160
     26 O         141.9148  143.5931  161.8827 O.3     1  UNL1       -0.3820
     27 H         141.6838  144.3907  161.3814 H       1  UNL1        0.2107
     28 C         139.7892  141.5133  161.4880 C.ar    1  UNL1        0.0054
     29 C         139.0318  140.9815  162.6684 C.ar    1  UNL1       -0.0018
     30 C         137.9689  139.9416  162.4710 C.ar    1  UNL1        0.0029
     31 C         137.6635  139.4335  161.0932 C.ar    1  UNL1        0.0375
     32 C         138.4209  139.9652  159.9127 C.ar    1  UNL1        0.1452
     33 O         138.3407  139.6569  158.4469 O.2     1  UNL1       -0.4504
     34 C         139.3539  140.5062  157.7384 C.ar    1  UNL1        0.1796
     35 C         140.0604  141.3395  158.7663 C.ar    1  UNL1        0.0435
     36 C         139.4837  141.0051  160.1101 C.ar    1  UNL1        0.0359
     37 C         139.9867  143.5679  160.9987 C.3     1  UNL1        0.0491
     38 C         139.5074  144.7753  161.7486 C.3     1  UNL1        0.0750
     39 N         138.9705  144.6287  163.1416 N.3     1  UNL1       -0.2702
     40 C         139.8604  144.8924  164.3200 C.3     1  UNL1        0.0897
     41 C         137.5438  144.2184  163.3562 C.3     1  UNL1        0.0897
@<TRIPOS>BOND
     1    13    14    1
     2    14     2    1
     3     2     3   ar
     4     3     4   ar
     5     4     5   ar
     6     5     6   ar
     7     6     7   ar
     8     7     8    1
     9     7     9   ar
    10     9    10   ar
    11    10    11   ar
    12    11    12   ar
    13     1    12    1
    14     1    15    1
    15    15    16   ar
    16    16    17   ar
    17    17    18   ar
    18    18    19   ar
    19    19    21    1
    20    21    22    1
    21    19    20   ar
    22    20    23    1
    23    23    24    1
    24     1    25    1
    25    25    26    1
    26    25    37    1
    27    37    38    1
    28    38    39    1
    29    39    40    1
    30    39    41    1
    31    25    28    1
    32    28    29   ar
    33    29    30   ar
    34    30    31   ar
    35    31    32   ar
    36    32    33   ar
    37    33    34   ar
    38    34    35   ar
    39    35    36   ar
    40    12     2   ar
    41    20    15   ar
    42    36    28   ar
    43    10     4   ar
    44    36    32   ar
    45    26    27    1
@<TRIPOS>MOLECULE
*****
 41 45 0 0 0
SMALL
GASTEIGER

@<TRIPOS>ATOM
      1 C         140.1868  140.4929  163.8625 C.3     1  UNL1        0.0792
      2 C         139.1869  139.5728  166.0770 C.ar    1  UNL1        0.1351
      3 C         139.1202  139.5836  167.5755 C.ar    1  UNL1        0.0366
      4 C         139.9868  140.5253  168.3580 C.ar    1  UNL1        0.0030
      5 C         139.9202  140.5362  169.8564 C.ar    1  UNL1        0.0006
      6 C         140.7867  141.4778  170.6389 C.ar    1  UNL1        0.0067
      7 C         141.7200  142.4087  169.9230 C.ar    1  UNL1        0.0346
      8 BR        142.5865  143.3503  170.7055 Br      1  UNL1       -0.0490
      9 C         141.7866  142.3979  168.4245 C.ar    1  UNL1        0.0067
     10 C         140.9200  141.4562  167.6420 C.ar    1  UNL1        0.0004
     11 C         140.9867  141.4453  166.1435 C.ar    1  UNL1       -0.0009
     12 C         140.1201  140.5037  165.3610 C.ar    1  UNL1        0.0182
     13 C         138.1256  137.2215  165.7688 C.3     1  UNL1        0.2525
     14 O         138.3203  138.6312  165.2945 O.3     1  UNL1       -0.4717
     15 C         141.5169  140.4387  163.1713 C.ar    1  UNL1        0.0245
     16 C         142.3001  141.6991  162.9520 C.ar    1  UNL1        0.0200
     17 C         143.6303  141.6450  162.2608 C.ar    1  UNL1        0.1019
     18 N         144.1773  140.3303  161.7890 N.ar    1  UNL1       -0.2076
     19 C         143.3942  139.0700  162.0083 C.ar    1  UNL1        0.2598
     20 C         142.0640  139.1241  162.6995 C.ar    1  UNL1        0.1879
     21 O         143.9412  137.7554  161.5365 O.3     1  UNL1       -0.4541
     22 C         143.3886  137.1140  160.2983 C.3     1  UNL1        0.2543
     23 O         141.2809  137.8638  162.9188 O.3     1  UNL1       -0.4670
     24 C         141.4634  137.0778  164.1834 C.3     1  UNL1        0.2527
     25 C         138.9233  140.5362  163.0552 C.3     1  UNL1        0.1160
     26 O         139.0123  139.0550  162.8363 O.3     1  UNL1       -0.3820
     27 H         138.1918  138.7388  162.4269 H       1  UNL1        0.2107
     28 C         138.8343  142.0175  163.2741 C.ar    1  UNL1        0.0054
     29 C         138.3117  142.5535  164.5740 C.ar    1  UNL1       -0.0018
     30 C         138.2227  144.0348  164.7929 C.ar    1  UNL1        0.0029
     31 C         138.6563  144.9800  163.7119 C.ar    1  UNL1        0.0375
     32 C         139.1789  144.4440  162.4121 C.ar    1  UNL1        0.1452
     33 O         139.6764  145.1265  161.1724 O.2     1  UNL1       -0.4504
     34 C         140.0729  144.0671  160.1874 C.ar    1  UNL1        0.1796
     35 C         139.8204  142.7298  160.8183 C.ar    1  UNL1        0.0435
     36 C         139.2679  142.9628  162.1931 C.ar    1  UNL1        0.0359
     37 C         137.6599  140.5796  162.2479 C.3     1  UNL1        0.0491
     38 C         137.4360  139.5813  161.1510 C.3     1  UNL1        0.0750
     39 N         138.2278  139.6730  159.8803 N.3     1  UNL1       -0.2702
     40 C         137.7728  140.5819  158.7771 C.3     1  UNL1        0.0897
     41 C         139.4746  138.8560  159.7128 C.3     1  UNL1        0.0897
@<TRIPOS>BOND
     1    13    14    1
     2    14     2    1
     3     2     3   ar
     4     3     4   ar
     5     4     5   ar
     6     5     6   ar
     7     6     7   ar
     8     7     8    1
     9     7     9   ar
    10     9    10   ar
    11    10    11   ar
    12    11    12   ar
    13     1    12    1
    14     1    15    1
    15    15    16   ar
    16    16    17   ar
    17    17    18   ar
    18    18    19   ar
    19    19    21    1
    20    21    22    1
    21    19    20   ar
    22    20    23    1
    23    23    24    1
    24     1    25    1
    25    25    26    1
    26    25    37    1
    27    37    38    1
    28    38    39    1
    29    39    40    1
    30    39    41    1
    31    25    28    1
    32    28    29   ar
    33    29    30   ar
    34    30    31   ar
    35    31    32   ar
    36    32    33   ar
    37    33    34   ar
    38    34    35   ar
    39    35    36   ar
    40    12     2   ar
    41    20    15   ar
    42    36    28   ar
    43    10     4   ar
    44    36    32   ar
    45    26    27    1
@<TRIPOS>MOLECULE
*****
 41 45 0 0 0
SMALL
GASTEIGER

@<TRIPOS>ATOM
      1 C         140.8283  140.8707  163.0199 C.3     1  UNL1        0.0792
      2 C         139.0944  139.6502  164.5212 C.ar    1  UNL1        0.1351
      3 C         138.5330  139.3542  165.8804 C.ar    1  UNL1        0.0366
      4 C         139.1444  139.9827  167.0974 C.ar    1  UNL1        0.0030
      5 C         138.5831  139.6867  168.4566 C.ar    1  UNL1        0.0006
      6 C         139.1944  140.3152  169.6737 C.ar    1  UNL1        0.0067
      7 C         140.3670  141.2397  169.5316 C.ar    1  UNL1        0.0346
      8 BR        140.9784  141.8681  170.7487 Br      1  UNL1       -0.0490
      9 C         140.9284  141.5357  168.1724 C.ar    1  UNL1        0.0067
     10 C         140.3170  140.9072  166.9553 C.ar    1  UNL1        0.0004
     11 C         140.8783  141.2032  165.5962 C.ar    1  UNL1       -0.0009
     12 C         140.2670  140.5747  164.3791 C.ar    1  UNL1        0.0182
     13 C         138.7578  137.5819  162.9852 C.3     1  UNL1        0.2525
     14 O         138.4830  139.0217  163.3041 O.3     1  UNL1       -0.4717
     15 C         141.5991  139.8171  162.2811 C.ar    1  UNL1        0.0245
     16 C         142.7626  139.1379  162.9407 C.ar    1  UNL1        0.0200
     17 C         143.5334  138.0844  162.2018 C.ar    1  UNL1        0.1019
     18 N         143.1406  137.7099  160.8034 N.ar    1  UNL1       -0.2076
     19 C         141.9771  138.3891  160.1438 C.ar    1  UNL1        0.2598
     20 C         141.2064  139.4427  160.8827 C.ar    1  UNL1        0.1879
     21 O         141.5844  138.0147  158.7455 O.3     1  UNL1       -0.4541
     22 C         142.5832  138.1225  157.6316 C.3     1  UNL1        0.2543
     23 O         140.0429  140.1219  160.2232 O.3     1  UNL1       -0.4670
     24 C         138.8430  139.3219  159.8103 C.3     1  UNL1        0.2527
     25 C         140.6189  142.2203  162.3997 C.3     1  UNL1        0.1160
     26 O         139.1644  141.9072  162.2095 O.3     1  UNL1       -0.3820
     27 H         138.6951  142.7086  161.9295 H       1  UNL1        0.2107
     28 C         142.0735  142.5334  162.5899 C.ar    1  UNL1        0.0054
     29 C         142.6037  142.8302  163.9613 C.ar    1  UNL1       -0.0018
     30 C         144.0584  143.1433  164.1514 C.ar    1  UNL1        0.0029
     31 C         144.9827  143.1596  162.9702 C.ar    1  UNL1        0.0375
     32 C         144.4524  142.8628  161.5988 C.ar    1  UNL1        0.1452
     33 O         145.1183  142.8056  160.2559 O.2     1  UNL1       -0.4504
     34 C         144.0753  142.4571  159.2358 C.ar    1  UNL1        0.1796
     35 C         142.7648  142.2990  159.9482 C.ar    1  UNL1        0.0435
     36 C         142.9979  142.5497  161.4086 C.ar    1  UNL1        0.0359
     37 C         140.4095  143.5699  161.7794 C.3     1  UNL1        0.0491
     38 C         139.9996  144.7325  162.6338 C.3     1  UNL1        0.0750
     39 N         138.9472  144.5545  163.6879 N.3     1  UNL1       -0.2702
     40 C         139.3360  144.5101  165.1359 C.3     1  UNL1        0.0897
     41 C         137.5061  144.4209  163.2938 C.3     1  UNL1        0.0897
@<TRIPOS>BOND
     1    13    14    1
     2    14     2    1
     3     2     3   ar
     4     3     4   ar
     5     4     5   ar
     6     5     6   ar
     7     6     7   ar
     8     7     8    1
     9     7     9   ar
    10     9    10   ar
    11    10    11   ar
    12    11    12   ar
    13     1    12    1
    14     1    15    1
    15    15    16   ar
    16    16    17   ar
    17    17    18   ar
    18    18    19   ar
    19    19    21    1
    20    21    22    1
    21    19    20   ar
    22    20    23    1
    23    23    24    1
    24     1    25    1
    25    25    26    1
    26    25    37    1
    27    37    38    1
    28    38    39    1
    29    39    40    1
    30    39    41    1
    31    25    28    1
    32    28    29   ar
    33    29    30   ar
    34    30    31   ar
    35    31    32   ar
    36    32    33   ar
    37    33    34   ar
    38    34    35   ar
    39    35    36   ar
    40    12     2   ar
    41    20    15   ar
    42    36    28   ar
    43    10     4   ar
    44    36    32   ar
    45    26    27    1
@<TRIPOS>MOLECULE
*****
 41 45 0 0 0
SMALL
GASTEIGER

@<TRIPOS>ATOM
      1 C         140.6927  141.2925  162.5418 C.3     1  UNL1        0.0792
      2 C         139.6719  142.8753  164.3314 C.ar    1  UNL1        0.1351
      3 C         139.5968  143.3542  165.7510 C.ar    1  UNL1        0.0366
      4 C         140.4674  142.7291  166.8004 C.ar    1  UNL1        0.0030
      5 C         140.3923  143.2080  168.2199 C.ar    1  UNL1        0.0006
      6 C         141.2629  142.5829  169.2694 C.ar    1  UNL1        0.0067
      7 C         142.2086  141.4789  168.8993 C.ar    1  UNL1        0.0346
      8 BR        143.0792  140.8538  169.9487 Br      1  UNL1       -0.0490
      9 C         142.2837  141.0000  167.4797 C.ar    1  UNL1        0.0067
     10 C         141.4131  141.6251  166.4303 C.ar    1  UNL1        0.0004
     11 C         141.4882  141.1463  165.0108 C.ar    1  UNL1       -0.0009
     12 C         140.6176  141.7714  163.9613 C.ar    1  UNL1        0.0182
     13 C         138.9829  144.9447  162.9196 C.3     1  UNL1        0.2525
     14 O         138.8014  143.5004  163.2820 O.3     1  UNL1       -0.4717
     15 C         141.3788  142.1296  161.5032 C.ar    1  UNL1        0.0245
     16 C         142.8613  142.3466  161.5741 C.ar    1  UNL1        0.0200
     17 C         143.5473  143.1837  160.5356 C.ar    1  UNL1        0.1019
     18 N         142.7508  143.8038  159.4260 N.ar    1  UNL1       -0.2076
     19 C         141.2683  143.5868  159.3551 C.ar    1  UNL1        0.2598
     20 C         140.5823  142.7497  160.3937 C.ar    1  UNL1        0.1879
     21 O         140.4718  144.2069  158.2456 O.3     1  UNL1       -0.4541
     22 C         140.5506  145.6848  158.0011 C.3     1  UNL1        0.2543
     23 O         139.0998  142.5327  160.3228 O.3     1  UNL1       -0.4670
     24 C         138.5111  141.7387  159.1945 C.3     1  UNL1        0.2527
     25 C         140.0819  139.9766  162.1608 C.3     1  UNL1        0.1160
     26 O         138.7197  140.5158  162.4826 O.3     1  UNL1       -0.3820
     27 H         138.0441  139.8878  162.1825 H       1  UNL1        0.2107
     28 C         141.4441  139.4374  161.8391 C.ar    1  UNL1        0.0054
     29 C         142.4223  139.1638  162.9428 C.ar    1  UNL1       -0.0018
     30 C         143.7846  138.6245  162.6210 C.ar    1  UNL1        0.0029
     31 C         144.1686  138.3589  161.1955 C.ar    1  UNL1        0.0375
     32 C         143.1903  138.6325  160.0918 C.ar    1  UNL1        0.1452
     33 O         143.2849  138.4702  158.6037 O.2     1  UNL1       -0.4504
     34 C         141.9812  138.9091  158.0057 C.ar    1  UNL1        0.1796
     35 C         141.0808  139.3427  159.1243 C.ar    1  UNL1        0.0435
     36 C         141.8281  139.1717  160.4136 C.ar    1  UNL1        0.0359
     37 C         139.4710  138.6607  161.7799 C.3     1  UNL1        0.0491
     38 C         138.7974  137.8170  162.8213 C.3     1  UNL1        0.0750
     39 N         139.2479  137.8879  164.2504 N.3     1  UNL1       -0.2702
     40 C         140.4621  137.1263  164.6926 C.3     1  UNL1        0.0897
     41 C         138.4841  138.7203  165.2371 C.3     1  UNL1        0.0897
@<TRIPOS>BOND
     1    13    14    1
     2    14     2    1
     3     2     3   ar
     4     3     4   ar
     5     4     5   ar
     6     5     6   ar
     7     6     7   ar
     8     7     8    1
     9     7     9   ar
    10     9    10   ar
    11    10    11   ar
    12    11    12   ar
    13     1    12    1
    14     1    15    1
    15    15    16   ar
    16    16    17   ar
    17    17    18   ar
    18    18    19   ar
    19    19    21    1
    20    21    22    1
    21    19    20   ar
    22    20    23    1
    23    23    24    1
    24     1    25    1
    25    25    26    1
    26    25    37    1
    27    37    38    1
    28    38    39    1
    29    39    40    1
    30    39    41    1
    31    25    28    1
    32    28    29   ar
    33    29    30   ar
    34    30    31   ar
    35    31    32   ar
    36    32    33   ar
    37    33    34   ar
    38    34    35   ar
    39    35    36   ar
    40    12     2   ar
    41    20    15   ar
    42    36    28   ar
    43    10     4   ar
    44    36    32   ar
    45    26    27    1
