@<TRIPOS>MOLECULE
*****
 32 36 0 0 0
SMALL
GASTEIGER

@<TRIPOS>ATOM
      1 C         140.5954  144.4019  162.4954 C.ar    1  UNL1        0.1233
      2 C         140.9172  143.9475  161.1025 C.ar    1  UNL1        0.1180
      3 N         140.2930  144.9167  160.1429 N.ar    1  UNL1       -0.2233
      4 N         139.5853  145.9701  160.9426 N.ar    1  UNL1       -0.0634
      5 N         139.7722  145.6519  162.3965 N.ar    1  UNL1       -0.1287
      6 C         140.3639  144.8451  158.6463 C.3     1  UNL1        0.1834
      7 C         141.3711  145.7485  157.9985 C.3     1  UNL1        0.0386
      8 C         141.6813  145.9094  156.5398 C.3     1  UNL1        0.0301
      9 C         141.0612  145.2067  155.3686 C.ar    1  UNL1       -0.0084
     10 C         141.6644  145.6633  154.0734 C.ar    1  UNL1       -0.0030
     11 C         141.1841  145.0827  152.7764 C.ar    1  UNL1       -0.0002
     12 C         140.1004  144.0455  152.7747 C.ar    1  UNL1        0.0013
     13 C         139.4972  143.5889  154.0699 C.ar    1  UNL1        0.0146
     14 C         139.9776  144.1695  155.3668 C.ar    1  UNL1        0.0499
     15 N         139.2465  143.5789  156.5359 N.am    1  UNL1       -0.2556
     16 C         138.2058  142.5517  156.2012 C.3     1  UNL1        0.1201
     17 C         139.4184  143.8795  157.9954 C.2     1  UNL1        0.2518
     18 O         138.5270  143.1132  158.9271 O.2     1  UNL1       -0.2724
     19 C         142.8097  142.4262  165.1303 C.ar    1  UNL1        0.1547
     20 C         142.3833  143.1030  163.8615 C.ar    1  UNL1        0.0400
     21 C         141.0219  143.7251  163.7642 C.ar    1  UNL1        0.0241
     22 C         140.0868  143.6703  164.9359 C.ar    1  UNL1        0.0033
     23 C         140.5133  142.9935  166.2047 C.ar    1  UNL1        0.0207
     24 C         141.8747  142.3714  166.3019 C.ar    1  UNL1        0.0994
     25 N         142.3011  141.6946  167.5709 N.ar    1  UNL1       -0.2839
     26 C         143.0870  142.3221  168.6838 C.ar    1  UNL1        0.1826
     27 N         143.2881  141.2867  169.7503 N.ar    1  UNL1       -0.2280
     28 C         142.6265  140.0193  169.2966 C.ar    1  UNL1        0.0786
     29 C         142.5826  138.7268  170.0565 C.3     1  UNL1        0.0538
     30 C         142.0165  140.2714  167.9496 C.ar    1  UNL1        0.0963
     31 C         145.1878  142.0527  164.1530 C.3     1  UNL1        0.2525
     32 O         144.1712  141.8042  165.2276 O.3     1  UNL1       -0.4700
@<TRIPOS>BOND
     1    31    32    1
     2    32    19    1
     3    19    20   ar
     4    20    21   ar
     5    21     1    1
     6     1     2   ar
     7     2     3   ar
     8     3     6    1
     9     6     7    1
    10     7     8    1
    11     8     9    1
    12     9    10   ar
    13    10    11   ar
    14    11    12   ar
    15    12    13   ar
    16    13    14   ar
    17    14    15    1
    18    15    16    1
    19    15    17   am
    20    17    18    2
    21     3     4   ar
    22     4     5   ar
    23    21    22   ar
    24    22    23   ar
    25    23    24   ar
    26    24    25    1
    27    25    26   ar
    28    26    27   ar
    29    27    28   ar
    30    28    29    1
    31    28    30   ar
    32    24    19   ar
    33    30    25   ar
    34     5     1   ar
    35    17     6    1
    36    14     9   ar
@<TRIPOS>MOLECULE
*****
 32 36 0 0 0
SMALL
GASTEIGER

@<TRIPOS>ATOM
      1 C         140.3622  139.8939  160.2497 C.ar    1  UNL1        0.1233
      2 C         140.5883  139.6067  161.7045 C.ar    1  UNL1        0.1180
      3 N         140.0864  140.7804  162.4922 N.ar    1  UNL1       -0.2233
      4 N         139.5501  141.7930  161.5243 N.ar    1  UNL1       -0.0634
      5 N         139.7206  141.2452  160.1383 N.ar    1  UNL1       -0.1287
      6 C         140.1157  140.9174  163.9857 C.3     1  UNL1        0.1834
      7 C         141.0054  141.9992  164.5227 C.3     1  UNL1        0.0386
      8 C         141.2505  142.3851  165.9513 C.3     1  UNL1        0.0301
      9 C         140.6665  141.7848  167.1957 C.ar    1  UNL1       -0.0084
     10 C         141.1785  142.4708  168.4275 C.ar    1  UNL1       -0.0030
     11 C         140.7172  142.0221  169.7824 C.ar    1  UNL1       -0.0002
     12 C         139.7439  140.8875  169.9056 C.ar    1  UNL1        0.0013
     13 C         139.2319  140.2015  168.6738 C.ar    1  UNL1        0.0146
     14 C         139.6932  140.6502  167.3189 C.ar    1  UNL1        0.0499
     15 N         139.0635  139.8356  166.2280 N.am    1  UNL1       -0.2556
     16 C         138.1210  138.7599  166.6804 C.3     1  UNL1        0.1201
     17 C         139.2514  139.9545  164.7446 C.2     1  UNL1        0.2518
     18 O         138.4722  138.9820  163.9098 O.2     1  UNL1       -0.2724
     19 C         139.9967  137.5903  157.0389 C.ar    1  UNL1        0.1547
     20 C         139.6432  138.4954  158.1816 C.ar    1  UNL1        0.0400
     21 C         140.7157  138.9888  159.1070 C.ar    1  UNL1        0.0241
     22 C         142.1416  138.5772  158.8897 C.ar    1  UNL1        0.0033
     23 C         142.4950  137.6721  157.7469 C.ar    1  UNL1        0.0207
     24 C         141.4226  137.1787  156.8216 C.ar    1  UNL1        0.0994
     25 N         141.7762  136.2735  155.6788 N.ar    1  UNL1       -0.2839
     26 C         141.9923  136.6940  154.2552 C.ar    1  UNL1        0.1826
     27 N         142.3253  135.4694  153.4557 N.ar    1  UNL1       -0.2280
     28 C         142.3151  134.2920  154.3851 C.ar    1  UNL1        0.0786
     29 C         142.5951  132.8677  154.0069 C.3     1  UNL1        0.0538
     30 C         141.9757  134.7890  155.7591 C.ar    1  UNL1        0.0963
     31 C         138.5437  137.9045  154.9082 C.3     1  UNL1        0.2525
     32 O         138.9243  137.0969  156.1135 O.3     1  UNL1       -0.4700
@<TRIPOS>BOND
     1    31    32    1
     2    32    19    1
     3    19    20   ar
     4    20    21   ar
     5    21     1    1
     6     1     2   ar
     7     2     3   ar
     8     3     6    1
     9     6     7    1
    10     7     8    1
    11     8     9    1
    12     9    10   ar
    13    10    11   ar
    14    11    12   ar
    15    12    13   ar
    16    13    14   ar
    17    14    15    1
    18    15    16    1
    19    15    17   am
    20    17    18    2
    21     3     4   ar
    22     4     5   ar
    23    21    22   ar
    24    22    23   ar
    25    23    24   ar
    26    24    25    1
    27    25    26   ar
    28    26    27   ar
    29    27    28   ar
    30    28    29    1
    31    28    30   ar
    32    24    19   ar
    33    30    25   ar
    34     5     1   ar
    35    17     6    1
    36    14     9   ar
@<TRIPOS>MOLECULE
*****
 32 36 0 0 0
SMALL
GASTEIGER

@<TRIPOS>ATOM
      1 C         142.8979  137.1610  157.5053 C.ar    1  UNL1        0.1233
      2 C         142.6504  137.4689  158.9524 C.ar    1  UNL1        0.1180
      3 N         143.0409  138.8966  159.1959 N.ar    1  UNL1       -0.2233
      4 N         143.5298  139.4710  157.8994 N.ar    1  UNL1       -0.0634
      5 N         143.4414  138.3983  156.8545 N.ar    1  UNL1       -0.1287
      6 C         142.9573  139.6223  160.5060 C.3     1  UNL1        0.1834
      7 C         144.1641  139.5110  161.3899 C.3     1  UNL1        0.0386
      8 C         144.3894  140.1134  162.7450 C.3     1  UNL1        0.0301
      9 C         143.4638  140.9758  163.5509 C.ar    1  UNL1       -0.0084
     10 C         144.0812  141.3678  164.8605 C.ar    1  UNL1       -0.0030
     11 C         143.3189  142.2329  165.8199 C.ar    1  UNL1       -0.0002
     12 C         141.9392  142.7059  165.4697 C.ar    1  UNL1        0.0013
     13 C         141.3218  142.3139  164.1601 C.ar    1  UNL1        0.0146
     14 C         142.0841  141.4489  163.2007 C.ar    1  UNL1        0.0499
     15 N         141.2893  141.1763  161.9581 N.am    1  UNL1       -0.2556
     16 C         139.9256  141.7990  161.9082 C.3     1  UNL1        0.1201
     17 C         141.6778  140.3635  160.7588 C.2     1  UNL1        0.2518
     18 O         140.6514  140.2808  159.6683 O.2     1  UNL1       -0.2724
     19 C         143.1087  133.2986  156.6181 C.ar    1  UNL1        0.1547
     20 C         143.3605  134.6130  157.2954 C.ar    1  UNL1        0.0400
     21 C         142.6462  135.8465  156.8281 C.ar    1  UNL1        0.0241
     22 C         141.6800  135.7655  155.6835 C.ar    1  UNL1        0.0033
     23 C         141.4283  134.4510  155.0062 C.ar    1  UNL1        0.0207
     24 C         142.1426  133.2176  155.4735 C.ar    1  UNL1        0.0994
     25 N         141.8907  131.9030  154.7961 N.ar    1  UNL1       -0.2839
     26 C         142.8001  131.2303  153.8110 C.ar    1  UNL1        0.1826
     27 N         142.1567  129.9421  153.3911 N.ar    1  UNL1       -0.2280
     28 C         140.8497  129.8185  154.1167 C.ar    1  UNL1        0.0786
     29 C         139.8777  128.6825  153.9953 C.3     1  UNL1        0.0538
     30 C         140.6853  131.0305  154.9851 C.ar    1  UNL1        0.0963
     31 C         145.0845  132.1876  157.8875 C.3     1  UNL1        0.2525
     32 O         143.8230  132.0651  157.0853 O.3     1  UNL1       -0.4700
@<TRIPOS>BOND
     1    31    32    1
     2    32    19    1
     3    19    20   ar
     4    20    21   ar
     5    21     1    1
     6     1     2   ar
     7     2     3   ar
     8     3     6    1
     9     6     7    1
    10     7     8    1
    11     8     9    1
    12     9    10   ar
    13    10    11   ar
    14    11    12   ar
    15    12    13   ar
    16    13    14   ar
    17    14    15    1
    18    15    16    1
    19    15    17   am
    20    17    18    2
    21     3     4   ar
    22     4     5   ar
    23    21    22   ar
    24    22    23   ar
    25    23    24   ar
    26    24    25    1
    27    25    26   ar
    28    26    27   ar
    29    27    28   ar
    30    28    29    1
    31    28    30   ar
    32    24    19   ar
    33    30    25   ar
    34     5     1   ar
    35    17     6    1
    36    14     9   ar
@<TRIPOS>MOLECULE
*****
 32 36 0 0 0
SMALL
GASTEIGER

@<TRIPOS>ATOM
      1 C         142.7735  138.8842  161.0089 C.ar    1  UNL1        0.1233
      2 C         142.2222  137.8198  160.1073 C.ar    1  UNL1        0.1180
      3 N         142.8240  138.0077  158.7462 N.ar    1  UNL1       -0.2233
      4 N         143.7473  139.1883  158.8067 N.ar    1  UNL1       -0.0634
      5 N         143.7161  139.7301  160.2051 N.ar    1  UNL1       -0.1287
      6 C         142.5505  137.1632  157.5370 C.3     1  UNL1        0.1834
      7 C         143.2236  135.8229  157.5135 C.3     1  UNL1        0.0386
      8 C         143.1525  134.7592  156.4584 C.3     1  UNL1        0.0301
      9 C         142.3909  134.7729  155.1662 C.ar    1  UNL1       -0.0084
     10 C         142.5934  133.5011  154.3971 C.ar    1  UNL1       -0.0030
     11 C         141.9173  133.3103  153.0719 C.ar    1  UNL1       -0.0002
     12 C         141.0385  134.3913  152.5157 C.ar    1  UNL1        0.0013
     13 C         140.8360  135.6631  153.2847 C.ar    1  UNL1        0.0146
     14 C         141.5122  135.8539  154.6100 C.ar    1  UNL1        0.0499
     15 N         141.1781  137.1880  155.2087 N.am    1  UNL1       -0.2556
     16 C         140.2606  138.0540  154.3973 C.3     1  UNL1        0.1201
     17 C         141.6402  137.7708  156.5113 C.2     1  UNL1        0.2518
     18 O         141.1237  139.1424  156.8304 O.2     1  UNL1       -0.2724
     19 C         142.2159  140.6149  164.5365 C.ar    1  UNL1        0.1547
     20 C         142.5487  140.4290  163.0858 C.ar    1  UNL1        0.0400
     21 C         142.4407  139.0702  162.4597 C.ar    1  UNL1        0.0241
     22 C         141.9998  137.8974  163.2843 C.ar    1  UNL1        0.0033
     23 C         141.6670  138.0833  164.7350 C.ar    1  UNL1        0.0207
     24 C         141.7750  139.4421  165.3611 C.ar    1  UNL1        0.0994
     25 N         141.4422  139.6280  166.8119 N.ar    1  UNL1       -0.2839
     26 C         142.3887  139.4561  167.9628 C.ar    1  UNL1        0.1826
     27 N         141.6359  139.7403  169.2285 N.ar    1  UNL1       -0.2280
     28 C         140.2240  140.0878  168.8601 C.ar    1  UNL1        0.0786
     29 C         139.1248  140.4425  169.8172 C.3     1  UNL1        0.0538
     30 C         140.1043  140.0184  167.3665 C.ar    1  UNL1        0.0963
     31 C         143.6222  142.4198  165.7672 C.3     1  UNL1        0.2525
     32 O         142.3240  141.9737  165.1626 O.3     1  UNL1       -0.4700
@<TRIPOS>BOND
     1    31    32    1
     2    32    19    1
     3    19    20   ar
     4    20    21   ar
     5    21     1    1
     6     1     2   ar
     7     2     3   ar
     8     3     6    1
     9     6     7    1
    10     7     8    1
    11     8     9    1
    12     9    10   ar
    13    10    11   ar
    14    11    12   ar
    15    12    13   ar
    16    13    14   ar
    17    14    15    1
    18    15    16    1
    19    15    17   am
    20    17    18    2
    21     3     4   ar
    22     4     5   ar
    23    21    22   ar
    24    22    23   ar
    25    23    24   ar
    26    24    25    1
    27    25    26   ar
    28    26    27   ar
    29    27    28   ar
    30    28    29    1
    31    28    30   ar
    32    24    19   ar
    33    30    25   ar
    34     5     1   ar
    35    17     6    1
    36    14     9   ar
@<TRIPOS>MOLECULE
*****
 32 36 0 0 0
SMALL
GASTEIGER

@<TRIPOS>ATOM
      1 C         142.9509  138.0180  157.7418 C.ar    1  UNL1        0.1233
      2 C         142.6952  136.5699  158.0378 C.ar    1  UNL1        0.1180
      3 N         143.3239  135.7555  156.9463 N.ar    1  UNL1       -0.2233
      4 N         143.9682  136.7003  155.9756 N.ar    1  UNL1       -0.0634
      5 N         143.7377  138.0986  156.4673 N.ar    1  UNL1       -0.1287
      6 C         143.3107  134.2591  156.8435 C.3     1  UNL1        0.1834
      7 C         144.3653  133.5431  157.6342 C.3     1  UNL1        0.0386
      8 C         144.6142  132.0677  157.7402 C.3     1  UNL1        0.0301
      9 C         143.8701  130.9439  157.0818 C.ar    1  UNL1       -0.0084
     10 C         144.4470  129.6109  157.4563 C.ar    1  UNL1       -0.0030
     11 C         143.8471  128.3521  156.9037 C.ar    1  UNL1       -0.0002
     12 C         142.6703  128.4262  155.9766 C.ar    1  UNL1        0.0013
     13 C         142.0934  129.7592  155.6021 C.ar    1  UNL1        0.0146
     14 C         142.6933  131.0180  156.1547 C.ar    1  UNL1        0.0499
     15 N         141.9699  132.2342  155.6570 N.am    1  UNL1       -0.2556
     16 C         140.8196  131.9735  154.7303 C.3     1  UNL1        0.1201
     17 C         142.2446  133.6766  155.9635 C.2     1  UNL1        0.2518
     18 O         141.3328  134.6675  155.3028 O.2     1  UNL1       -0.2724
     19 C         143.0551  141.3106  159.9548 C.ar    1  UNL1        0.1547
     20 C         143.5070  140.1474  159.1225 C.ar    1  UNL1        0.0400
     21 C         142.4991  139.1812  158.5741 C.ar    1  UNL1        0.0241
     22 C         141.0395  139.3782  158.8581 C.ar    1  UNL1        0.0033
     23 C         140.5877  140.5414  159.6904 C.ar    1  UNL1        0.0207
     24 C         141.5955  141.5076  160.2388 C.ar    1  UNL1        0.0994
     25 N         141.1436  142.6708  161.0712 N.ar    1  UNL1       -0.2839
     26 C         141.1168  142.7250  162.5700 C.ar    1  UNL1        0.1826
     27 N         140.5959  144.0717  162.9759 N.ar    1  UNL1       -0.2280
     28 C         140.3008  144.8499  161.7281 C.ar    1  UNL1        0.0786
     29 C         139.7617  146.2485  161.6679 C.3     1  UNL1        0.0538
     30 C         140.6393  143.9842  160.5508 C.ar    1  UNL1        0.0963
     31 C         144.8260  141.9380  161.7494 C.3     1  UNL1        0.2525
     32 O         144.0630  142.2768  160.5032 O.3     1  UNL1       -0.4700
@<TRIPOS>BOND
     1    31    32    1
     2    32    19    1
     3    19    20   ar
     4    20    21   ar
     5    21     1    1
     6     1     2   ar
     7     2     3   ar
     8     3     6    1
     9     6     7    1
    10     7     8    1
    11     8     9    1
    12     9    10   ar
    13    10    11   ar
    14    11    12   ar
    15    12    13   ar
    16    13    14   ar
    17    14    15    1
    18    15    16    1
    19    15    17   am
    20    17    18    2
    21     3     4   ar
    22     4     5   ar
    23    21    22   ar
    24    22    23   ar
    25    23    24   ar
    26    24    25    1
    27    25    26   ar
    28    26    27   ar
    29    27    28   ar
    30    28    29    1
    31    28    30   ar
    32    24    19   ar
    33    30    25   ar
    34     5     1   ar
    35    17     6    1
    36    14     9   ar
@<TRIPOS>MOLECULE
*****
 32 36 0 0 0
SMALL
GASTEIGER

@<TRIPOS>ATOM
      1 C         142.5635  137.9981  157.4703 C.ar    1  UNL1        0.1233
      2 C         142.3151  136.5358  157.2467 C.ar    1  UNL1        0.1180
      3 N         143.3405  136.0350  156.2732 N.ar    1  UNL1       -0.2233
      4 N         144.2226  137.1878  155.8951 N.ar    1  UNL1       -0.0634
      5 N         143.7424  138.4011  156.6350 N.ar    1  UNL1       -0.1287
      6 C         143.4624  134.6284  155.7667 C.3     1  UNL1        0.1834
      7 C         144.2777  133.6991  156.6162 C.3     1  UNL1        0.0386
      8 C         144.5847  132.2489  156.3864 C.3     1  UNL1        0.0301
      9 C         144.1524  131.3699  155.2504 C.ar    1  UNL1       -0.0084
     10 C         144.6811  129.9747  155.4052 C.ar    1  UNL1       -0.0030
     11 C         144.3635  128.9336  154.3731 C.ar    1  UNL1       -0.0002
     12 C         143.5173  129.2877  153.1863 C.ar    1  UNL1        0.0013
     13 C         142.9887  130.6829  153.0315 C.ar    1  UNL1        0.0146
     14 C         143.3062  131.7240  154.0636 C.ar    1  UNL1        0.0499
     15 N         142.6834  133.0445  153.7197 N.am    1  UNL1       -0.2556
     16 C         141.8855  133.0767  152.4499 C.3     1  UNL1        0.1201
     17 C         142.7528  134.3371  154.4775 C.2     1  UNL1        0.2518
     18 O         142.0153  135.4909  153.8655 O.2     1  UNL1       -0.2724
     19 C         139.7243  139.2979  159.9196 C.ar    1  UNL1        0.1547
     20 C         140.5157  138.3967  159.0188 C.ar    1  UNL1        0.0400
     21 C         141.7719  138.8992  158.3711 C.ar    1  UNL1        0.0241
     22 C         142.2365  140.3028  158.6241 C.ar    1  UNL1        0.0033
     23 C         141.4450  141.2039  159.5249 C.ar    1  UNL1        0.0207
     24 C         140.1889  140.7015  160.1726 C.ar    1  UNL1        0.0994
     25 N         139.3973  141.6027  161.0734 N.ar    1  UNL1       -0.2839
     26 C         138.2476  142.4732  160.6606 C.ar    1  UNL1        0.1826
     27 N         137.7563  143.2000  161.8772 N.ar    1  UNL1       -0.2280
     28 C         138.6023  142.7787  163.0420 C.ar    1  UNL1        0.0786
     29 C         138.4592  143.2602  164.4554 C.3     1  UNL1        0.0538
     30 C         139.6165  141.7915  162.5453 C.ar    1  UNL1        0.0963
     31 C         138.5347  138.1034  161.8965 C.3     1  UNL1        0.2525
     32 O         138.4681  138.7954  160.5673 O.3     1  UNL1       -0.4700
@<TRIPOS>BOND
     1    31    32    1
     2    32    19    1
     3    19    20   ar
     4    20    21   ar
     5    21     1    1
     6     1     2   ar
     7     2     3   ar
     8     3     6    1
     9     6     7    1
    10     7     8    1
    11     8     9    1
    12     9    10   ar
    13    10    11   ar
    14    11    12   ar
    15    12    13   ar
    16    13    14   ar
    17    14    15    1
    18    15    16    1
    19    15    17   am
    20    17    18    2
    21     3     4   ar
    22     4     5   ar
    23    21    22   ar
    24    22    23   ar
    25    23    24   ar
    26    24    25    1
    27    25    26   ar
    28    26    27   ar
    29    27    28   ar
    30    28    29    1
    31    28    30   ar
    32    24    19   ar
    33    30    25   ar
    34     5     1   ar
    35    17     6    1
    36    14     9   ar
@<TRIPOS>MOLECULE
*****
 32 36 0 0 0
SMALL
GASTEIGER

@<TRIPOS>ATOM
      1 C         140.6984  139.7189  160.1879 C.ar    1  UNL1        0.1233
      2 C         141.0519  139.4728  161.6248 C.ar    1  UNL1        0.1180
      3 N         140.6140  140.6663  162.4209 N.ar    1  UNL1       -0.2233
      4 N         139.9899  141.6500  161.4760 N.ar    1  UNL1       -0.0634
      5 N         140.0421  141.0645  160.0960 N.ar    1  UNL1       -0.1287
      6 C         140.7724  140.8447  163.9018 C.3     1  UNL1        0.1834
      7 C         139.6844  140.2535  164.7486 C.3     1  UNL1        0.0386
      8 C         139.5533  140.2624  166.2428 C.3     1  UNL1        0.0301
      9 C         140.4775  140.8646  167.2593 C.ar    1  UNL1       -0.0084
     10 C         139.9728  140.6480  168.6551 C.ar    1  UNL1       -0.0030
     11 C         140.7518  141.1736  169.8242 C.ar    1  UNL1       -0.0002
     12 C         142.0355  141.9157  169.5975 C.ar    1  UNL1        0.0013
     13 C         142.5402  142.1322  168.2017 C.ar    1  UNL1        0.0146
     14 C         141.7612  141.6066  167.0326 C.ar    1  UNL1        0.0499
     15 N         142.4377  141.9298  165.7334 N.am    1  UNL1       -0.2556
     16 C         143.7245  142.6929  165.8419 C.3     1  UNL1        0.1201
     17 C         141.9977  141.5907  164.3400 C.2     1  UNL1        0.2518
     18 O         142.9026  142.0596  163.2395 O.2     1  UNL1       -0.2724
     19 C         140.0882  137.4412  156.9959 C.ar    1  UNL1        0.1547
     20 C         139.8305  138.3765  158.1398 C.ar    1  UNL1        0.0400
     21 C         140.9561  138.7836  159.0439 C.ar    1  UNL1        0.0241
     22 C         142.3393  138.2554  158.8040 C.ar    1  UNL1        0.0033
     23 C         142.5970  137.3200  157.6600 C.ar    1  UNL1        0.0207
     24 C         141.4715  136.9130  156.7560 C.ar    1  UNL1        0.0994
     25 N         141.7292  135.9776  155.6119 N.ar    1  UNL1       -0.2839
     26 C         141.8993  136.3692  154.1739 C.ar    1  UNL1        0.1826
     27 N         142.1373  135.1201  153.3784 N.ar    1  UNL1       -0.2280
     28 C         142.1143  133.9565  154.3246 C.ar    1  UNL1        0.0786
     29 C         142.3093  132.5158  153.9553 C.3     1  UNL1        0.0538
     30 C         141.8621  134.4864  155.7050 C.ar    1  UNL1        0.0963
     31 C         138.5555  137.9228  154.9541 C.3     1  UNL1        0.2525
     32 O         138.9627  137.0341  156.0918 O.3     1  UNL1       -0.4700
@<TRIPOS>BOND
     1    31    32    1
     2    32    19    1
     3    19    20   ar
     4    20    21   ar
     5    21     1    1
     6     1     2   ar
     7     2     3   ar
     8     3     6    1
     9     6     7    1
    10     7     8    1
    11     8     9    1
    12     9    10   ar
    13    10    11   ar
    14    11    12   ar
    15    12    13   ar
    16    13    14   ar
    17    14    15    1
    18    15    16    1
    19    15    17   am
    20    17    18    2
    21     3     4   ar
    22     4     5   ar
    23    21    22   ar
    24    22    23   ar
    25    23    24   ar
    26    24    25    1
    27    25    26   ar
    28    26    27   ar
    29    27    28   ar
    30    28    29    1
    31    28    30   ar
    32    24    19   ar
    33    30    25   ar
    34     5     1   ar
    35    17     6    1
    36    14     9   ar
@<TRIPOS>MOLECULE
*****
 32 36 0 0 0
SMALL
GASTEIGER

@<TRIPOS>ATOM
      1 C         143.2279  138.9297  159.8447 C.ar    1  UNL1        0.1233
      2 C         142.6643  137.7385  159.1282 C.ar    1  UNL1        0.1180
      3 N         143.0458  137.8445  157.6814 N.ar    1  UNL1       -0.2233
      4 N         143.8453  139.1012  157.5038 N.ar    1  UNL1       -0.0634
      5 N         143.9579  139.7719  158.8408 N.ar    1  UNL1       -0.1287
      6 C         142.6903  136.8657  156.6018 C.3     1  UNL1        0.1834
      7 C         143.4556  135.5756  156.6152 C.3     1  UNL1        0.0386
      8 C         143.3361  134.4077  155.6816 C.3     1  UNL1        0.0301
      9 C         142.4218  134.2412  154.5041 C.ar    1  UNL1       -0.0084
     10 C         142.6243  132.9133  153.8365 C.ar    1  UNL1       -0.0030
     11 C         141.8061  132.5458  152.6343 C.ar    1  UNL1       -0.0002
     12 C         140.7855  133.5063  152.0995 C.ar    1  UNL1        0.0013
     13 C         140.5831  134.8342  152.7671 C.ar    1  UNL1        0.0146
     14 C         141.4012  135.2016  153.9694 C.ar    1  UNL1        0.0499
     15 N         141.0429  136.5657  154.4801 N.am    1  UNL1       -0.2556
     16 C         139.9688  137.2843  153.7185 C.3     1  UNL1        0.1201
     17 C         141.6165  137.3064  155.6516 C.2     1  UNL1        0.2518
     18 O         141.0403  138.6675  155.9066 O.2     1  UNL1       -0.2724
     19 C         141.5842  139.7361  163.3657 C.ar    1  UNL1        0.1547
     20 C         141.7256  139.4393  161.9023 C.ar    1  UNL1        0.0400
     21 C         143.0865  139.2265  161.3082 C.ar    1  UNL1        0.0241
     22 C         144.3059  139.3106  162.1777 C.ar    1  UNL1        0.0033
     23 C         144.1644  139.6074  163.6412 C.ar    1  UNL1        0.0207
     24 C         142.8036  139.8201  164.2352 C.ar    1  UNL1        0.0994
     25 N         142.6622  140.1170  165.6988 N.ar    1  UNL1       -0.2839
     26 C         142.4675  141.4736  166.3085 C.ar    1  UNL1        0.1826
     27 N         142.3757  141.3043  167.7960 N.ar    1  UNL1       -0.2280
     28 C         142.5136  139.8432  168.1057 C.ar    1  UNL1        0.0786
     29 C         142.4803  139.2244  169.4718 C.3     1  UNL1        0.0538
     30 C         142.6907  139.1093  166.8095 C.ar    1  UNL1        0.0963
     31 C         139.4811  138.7951  164.5663 C.3     1  UNL1        0.2525
     32 O         140.2234  139.9488  163.9598 O.3     1  UNL1       -0.4700
@<TRIPOS>BOND
     1    31    32    1
     2    32    19    1
     3    19    20   ar
     4    20    21   ar
     5    21     1    1
     6     1     2   ar
     7     2     3   ar
     8     3     6    1
     9     6     7    1
    10     7     8    1
    11     8     9    1
    12     9    10   ar
    13    10    11   ar
    14    11    12   ar
    15    12    13   ar
    16    13    14   ar
    17    14    15    1
    18    15    16    1
    19    15    17   am
    20    17    18    2
    21     3     4   ar
    22     4     5   ar
    23    21    22   ar
    24    22    23   ar
    25    23    24   ar
    26    24    25    1
    27    25    26   ar
    28    26    27   ar
    29    27    28   ar
    30    28    29    1
    31    28    30   ar
    32    24    19   ar
    33    30    25   ar
    34     5     1   ar
    35    17     6    1
    36    14     9   ar
@<TRIPOS>MOLECULE
*****
 32 36 0 0 0
SMALL
GASTEIGER

@<TRIPOS>ATOM
      1 C         142.8139  138.9520  161.2978 C.ar    1  UNL1        0.1233
      2 C         142.1232  138.0466  160.3214 C.ar    1  UNL1        0.1180
      3 N         142.8196  138.1734  158.9990 N.ar    1  UNL1       -0.2233
      4 N         143.9408  139.1572  159.1580 N.ar    1  UNL1       -0.0634
      5 N         143.9372  139.6384  160.5788 N.ar    1  UNL1       -0.1287
      6 C         142.4584  137.4445  157.7388 C.3     1  UNL1        0.1834
      7 C         141.7851  138.2678  156.6809 C.3     1  UNL1        0.0386
      8 C         141.3054  137.8385  155.3261 C.3     1  UNL1        0.0301
      9 C         141.3804  136.4800  154.6944 C.ar    1  UNL1       -0.0084
     10 C         140.7809  136.4811  153.3195 C.ar    1  UNL1       -0.0030
     11 C         140.7547  135.2175  152.5117 C.ar    1  UNL1       -0.0002
     12 C         141.3280  133.9527  153.0790 C.ar    1  UNL1        0.0013
     13 C         141.9275  133.9516  154.4539 C.ar    1  UNL1        0.0146
     14 C         141.9537  135.2153  155.2617 C.ar    1  UNL1        0.0499
     15 N         142.5936  134.9967  156.6006 N.am    1  UNL1       -0.2556
     16 C         143.0722  133.6014  156.8732 C.3     1  UNL1        0.1201
     17 C         142.8182  135.9887  157.7031 C.2     1  UNL1        0.2518
     18 O         143.4917  135.4544  158.9322 O.2     1  UNL1       -0.2724
     19 C         142.1448  140.6882  164.8032 C.ar    1  UNL1        0.1547
     20 C         142.5128  140.5020  163.3610 C.ar    1  UNL1        0.0400
     21 C         142.4458  139.1382  162.7400 C.ar    1  UNL1        0.0241
     22 C         142.0108  137.9607  163.5610 C.ar    1  UNL1        0.0033
     23 C         141.6428  138.1470  165.0032 C.ar    1  UNL1        0.0207
     24 C         141.7098  139.5107  165.6242 C.ar    1  UNL1        0.0994
     25 N         141.3417  139.6969  167.0665 N.ar    1  UNL1       -0.2839
     26 C         142.2653  139.5460  168.2388 C.ar    1  UNL1        0.1826
     27 N         141.4798  139.8225  169.4863 N.ar    1  UNL1       -0.2280
     28 C         140.0708  140.1443  169.0852 C.ar    1  UNL1        0.0786
     29 C         138.9447  140.4841  170.0161 C.3     1  UNL1        0.0538
     30 C         139.9854  140.0666  167.5896 C.ar    1  UNL1        0.0963
     31 C         143.4475  142.4822  166.1575 C.3     1  UNL1        0.2525
     32 O         142.2118  142.0519  165.4242 O.3     1  UNL1       -0.4700
@<TRIPOS>BOND
     1    31    32    1
     2    32    19    1
     3    19    20   ar
     4    20    21   ar
     5    21     1    1
     6     1     2   ar
     7     2     3   ar
     8     3     6    1
     9     6     7    1
    10     7     8    1
    11     8     9    1
    12     9    10   ar
    13    10    11   ar
    14    11    12   ar
    15    12    13   ar
    16    13    14   ar
    17    14    15    1
    18    15    16    1
    19    15    17   am
    20    17    18    2
    21     3     4   ar
    22     4     5   ar
    23    21    22   ar
    24    22    23   ar
    25    23    24   ar
    26    24    25    1
    27    25    26   ar
    28    26    27   ar
    29    27    28   ar
    30    28    29    1
    31    28    30   ar
    32    24    19   ar
    33    30    25   ar
    34     5     1   ar
    35    17     6    1
    36    14     9   ar
