@<TRIPOS>MOLECULE
*****
 18 19 0 0 0
SMALL
GASTEIGER

@<TRIPOS>ATOM
      1 C         140.0023  141.8865  169.5772 C.ar    1  UNL1        0.2900
      2 C         140.4877  142.6347  168.3712 C.ar    1  UNL1        0.0749
      3 C         140.3592  142.0235  167.0074 C.ar    1  UNL1        0.0021
      4 C         139.7453  140.6640  166.8497 C.ar    1  UNL1       -0.0204
      5 C         139.2599  139.9158  168.0557 C.ar    1  UNL1        0.0021
      6 C         139.3884  140.5271  169.4195 C.ar    1  UNL1        0.0749
      7 O         139.0933  143.4641  171.4305 O.2     1  UNL1        0.0415
      8 N         140.1308  142.4978  170.9409 N.pl3   1  UNL1        0.0809
      9 O         141.2969  142.1428  171.8151 O.co2   1  UNL1       -0.5760
     10 C         139.6167  140.0527  165.4859 C.3     1  UNL1        0.0437
     11 C         138.3398  140.2039  164.7136 C.3     1  UNL1        0.0769
     12 N         138.1619  141.3627  163.7779 N.3     1  UNL1       -0.2700
     13 C         137.8643  142.7281  164.3232 C.3     1  UNL1        0.0894
     14 C         137.6863  143.8869  163.3876 C.3     1  UNL1        0.0862
     15 N         137.8060  143.6803  161.9066 N.3     1  UNL1       -0.2951
     16 C         138.1036  142.3150  161.3614 C.3     1  UNL1        0.0862
     17 C         138.2815  141.1562  162.2971 C.3     1  UNL1        0.0894
     18 H         138.5522  144.2958  161.5828 H       1  UNL1        0.1233
@<TRIPOS>UNITY_ATOM_ATTR
8 1
charge 1
9 1
charge -1
@<TRIPOS>BOND
     1     7     8    2
     2     8     9    1
     3     8     1    1
     4     1     2   ar
     5     2     3   ar
     6     3     4   ar
     7     4    10    1
     8    10    11    1
     9    11    12    1
    10    12    13    1
    11    13    14    1
    12    14    15    1
    13    15    16    1
    14    16    17    1
    15     4     5   ar
    16     5     6   ar
    17     6     1   ar
    18    17    12    1
    19    15    18    1
@<TRIPOS>MOLECULE
*****
 18 19 0 0 0
SMALL
GASTEIGER

@<TRIPOS>ATOM
      1 C         139.9983  141.8790  169.5866 C.ar    1  UNL1        0.2900
      2 C         139.3680  140.5236  169.4625 C.ar    1  UNL1        0.0749
      3 C         139.2377  139.8775  168.1150 C.ar    1  UNL1        0.0021
      4 C         139.7379  140.5869  166.8917 C.ar    1  UNL1       -0.0204
      5 C         140.3683  141.9423  167.0158 C.ar    1  UNL1        0.0021
      6 C         140.4985  142.5883  168.3633 C.ar    1  UNL1        0.0749
      7 O         141.3117  142.2162  171.8027 O.2     1  UNL1        0.0415
      8 N         140.1285  142.5251  170.9341 N.pl3   1  UNL1        0.0809
      9 O         139.0755  143.4800  171.4129 O.co2   1  UNL1       -0.5760
     10 C         139.6077  139.9408  165.5442 C.3     1  UNL1        0.0437
     11 C         138.3135  140.0307  164.7913 C.3     1  UNL1        0.0769
     12 N         138.1172  141.1048  163.7628 N.3     1  UNL1       -0.2700
     13 C         138.2135  140.7723  162.3033 C.3     1  UNL1        0.0894
     14 C         138.0172  141.8464  161.2748 C.3     1  UNL1        0.0862
     15 N         137.7246  143.2530  161.7059 N.3     1  UNL1       -0.2951
     16 C         137.6283  143.5855  163.1654 C.3     1  UNL1        0.0862
     17 C         137.8247  142.5114  164.1938 C.3     1  UNL1        0.0894
     18 H         136.8314  143.5100  161.2858 H       1  UNL1        0.1233
@<TRIPOS>UNITY_ATOM_ATTR
8 1
charge 1
9 1
charge -1
@<TRIPOS>BOND
     1     7     8    2
     2     8     9    1
     3     8     1    1
     4     1     2   ar
     5     2     3   ar
     6     3     4   ar
     7     4    10    1
     8    10    11    1
     9    11    12    1
    10    12    13    1
    11    13    14    1
    12    14    15    1
    13    15    16    1
    14    16    17    1
    15     4     5   ar
    16     5     6   ar
    17     6     1   ar
    18    17    12    1
    19    15    18    1
@<TRIPOS>MOLECULE
*****
 18 19 0 0 0
SMALL
GASTEIGER

@<TRIPOS>ATOM
      1 C         140.4256  142.5222  169.2739 C.ar    1  UNL1        0.2900
      2 C         139.7222  141.4108  169.9949 C.ar    1  UNL1        0.0749
      3 C         139.1566  140.2557  169.2230 C.ar    1  UNL1        0.0021
      4 C         139.2945  140.2120  167.7300 C.ar    1  UNL1       -0.0204
      5 C         139.9979  141.3234  167.0090 C.ar    1  UNL1        0.0021
      6 C         140.5634  142.4785  167.7809 C.ar    1  UNL1        0.0749
      7 O         140.1624  144.9074  170.2697 O.2     1  UNL1        0.0415
      8 N         140.9911  143.6773  170.0458 N.pl3   1  UNL1        0.0809
      9 O         142.3854  143.6024  170.5938 O.co2   1  UNL1       -0.5760
     10 C         138.7289  139.0568  166.9581 C.3     1  UNL1        0.0437
     11 C         138.4196  139.2099  165.4984 C.3     1  UNL1        0.0769
     12 N         139.2841  138.5366  164.4739 N.3     1  UNL1       -0.2700
     13 C         138.8854  138.5541  163.0279 C.3     1  UNL1        0.0894
     14 C         139.7499  137.8809  162.0035 C.3     1  UNL1        0.0862
     15 N         141.0130  137.1902  162.4250 N.3     1  UNL1       -0.2951
     16 C         141.4116  137.1728  163.8710 C.3     1  UNL1        0.0862
     17 C         140.5471  137.8460  164.8954 C.3     1  UNL1        0.0894
     18 H         141.7761  137.6347  161.9146 H       1  UNL1        0.1233
@<TRIPOS>UNITY_ATOM_ATTR
8 1
charge 1
9 1
charge -1
@<TRIPOS>BOND
     1     7     8    2
     2     8     9    1
     3     8     1    1
     4     1     2   ar
     5     2     3   ar
     6     3     4   ar
     7     4    10    1
     8    10    11    1
     9    11    12    1
    10    12    13    1
    11    13    14    1
    12    14    15    1
    13    15    16    1
    14    16    17    1
    15     4     5   ar
    16     5     6   ar
    17     6     1   ar
    18    17    12    1
    19    15    18    1
@<TRIPOS>MOLECULE
*****
 18 19 0 0 0
SMALL
GASTEIGER

@<TRIPOS>ATOM
      1 C         140.4637  142.5281  169.1710 C.ar    1  UNL1        0.2900
      2 C         140.6637  142.5488  167.6846 C.ar    1  UNL1        0.0749
      3 C         140.1666  141.4095  166.8450 C.ar    1  UNL1        0.0021
      4 C         139.4695  140.2495  167.4918 C.ar    1  UNL1       -0.0204
      5 C         139.2695  140.2288  168.9783 C.ar    1  UNL1        0.0021
      6 C         139.7666  141.3681  169.8179 C.ar    1  UNL1        0.0749
      7 O         140.0700  144.8433  170.2823 O.2     1  UNL1        0.0415
      8 N         140.9607  143.6674  170.0107 N.pl3   1  UNL1        0.0809
      9 O         142.3485  143.6308  170.5786 O.co2   1  UNL1       -0.5760
     10 C         138.9724  139.1102  166.6522 C.3     1  UNL1        0.0437
     11 C         139.6031  138.8289  165.3207 C.3     1  UNL1        0.0769
     12 N         138.8423  139.1035  164.0574 N.3     1  UNL1       -0.2700
     13 C         138.2483  140.4602  163.8196 C.3     1  UNL1        0.0894
     14 C         137.4875  140.7348  162.5563 C.3     1  UNL1        0.0862
     15 N         137.3208  139.6527  161.5309 N.3     1  UNL1       -0.2951
     16 C         137.9148  138.2961  161.7688 C.3     1  UNL1        0.0862
     17 C         138.6756  138.0215  163.0321 C.3     1  UNL1        0.0894
     18 H         137.7267  140.0039  160.6636 H       1  UNL1        0.1233
@<TRIPOS>UNITY_ATOM_ATTR
8 1
charge 1
9 1
charge -1
@<TRIPOS>BOND
     1     7     8    2
     2     8     9    1
     3     8     1    1
     4     1     2   ar
     5     2     3   ar
     6     3     4   ar
     7     4    10    1
     8    10    11    1
     9    11    12    1
    10    12    13    1
    11    13    14    1
    12    14    15    1
    13    15    16    1
    14    16    17    1
    15     4     5   ar
    16     5     6   ar
    17     6     1   ar
    18    17    12    1
    19    15    18    1
@<TRIPOS>MOLECULE
*****
 18 19 0 0 0
SMALL
GASTEIGER

@<TRIPOS>ATOM
      1 C         140.1536  142.1541  169.2875 C.ar    1  UNL1        0.2900
      2 C         139.7578  140.7081  169.3366 C.ar    1  UNL1        0.0749
      3 C         139.7515  139.8891  168.0800 C.ar    1  UNL1        0.0021
      4 C         140.1409  140.5161  166.7742 C.ar    1  UNL1       -0.0204
      5 C         140.5366  141.9621  166.7250 C.ar    1  UNL1        0.0021
      6 C         140.5430  142.7811  167.9817 C.ar    1  UNL1        0.0749
      7 O         139.9020  144.4493  170.4786 O.2     1  UNL1        0.0415
      8 N         140.1599  142.9731  170.5442 N.pl3   1  UNL1        0.0809
      9 O         140.4242  142.3159  171.8663 O.co2   1  UNL1       -0.5760
     10 C         140.1345  139.6971  165.5175 C.3     1  UNL1        0.0437
     11 C         141.1094  138.5692  165.3524 C.3     1  UNL1        0.0769
     12 N         142.3045  138.7351  164.4613 N.3     1  UNL1       -0.2700
     13 C         142.2959  138.1528  163.0789 C.3     1  UNL1        0.0894
     14 C         143.4910  138.3188  162.1877 C.3     1  UNL1        0.0862
     15 N         144.6947  139.0671  162.6790 N.3     1  UNL1       -0.2951
     16 C         144.7033  139.6494  164.0613 C.3     1  UNL1        0.0862
     17 C         143.5082  139.4834  164.9524 C.3     1  UNL1        0.0894
     18 H         144.8441  139.8416  162.0323 H       1  UNL1        0.1233
@<TRIPOS>UNITY_ATOM_ATTR
8 1
charge 1
9 1
charge -1
@<TRIPOS>BOND
     1     7     8    2
     2     8     9    1
     3     8     1    1
     4     1     2   ar
     5     2     3   ar
     6     3     4   ar
     7     4    10    1
     8    10    11    1
     9    11    12    1
    10    12    13    1
    11    13    14    1
    12    14    15    1
    13    15    16    1
    14    16    17    1
    15     4     5   ar
    16     5     6   ar
    17     6     1   ar
    18    17    12    1
    19    15    18    1
@<TRIPOS>MOLECULE
*****
 18 19 0 0 0
SMALL
GASTEIGER

@<TRIPOS>ATOM
      1 C         140.1214  141.9833  169.4018 C.ar    1  UNL1        0.2900
      2 C         139.3562  140.6933  169.4140 C.ar    1  UNL1        0.0749
      3 C         139.3357  139.8217  168.1934 C.ar    1  UNL1        0.0021
      4 C         140.0806  140.2401  166.9605 C.ar    1  UNL1       -0.0204
      5 C         140.8459  141.5301  166.9482 C.ar    1  UNL1        0.0021
      6 C         140.8663  142.4017  168.1689 C.ar    1  UNL1        0.0749
      7 O         139.7912  144.3090  170.5116 O.2     1  UNL1        0.0415
      8 N         140.1419  142.8548  170.6224 N.pl3   1  UNL1        0.0809
      9 O         140.5130  142.2722  171.9538 O.co2   1  UNL1       -0.5760
     10 C         140.0602  139.3685  165.7399 C.3     1  UNL1        0.0437
     11 C         138.7520  138.9827  165.1156 C.3     1  UNL1        0.0769
     12 N         138.5577  139.1217  163.6348 N.3     1  UNL1       -0.2700
     13 C         138.9737  138.0112  162.7162 C.3     1  UNL1        0.0894
     14 C         138.7794  138.1503  161.2353 C.3     1  UNL1        0.0862
     15 N         138.1690  139.3998  160.6731 N.3     1  UNL1       -0.2951
     16 C         137.7530  140.5103  161.5916 C.3     1  UNL1        0.0862
     17 C         137.9473  140.3712  163.0725 C.3     1  UNL1        0.0894
     18 H         137.3353  139.1148  160.1592 H       1  UNL1        0.1233
@<TRIPOS>UNITY_ATOM_ATTR
8 1
charge 1
9 1
charge -1
@<TRIPOS>BOND
     1     7     8    2
     2     8     9    1
     3     8     1    1
     4     1     2   ar
     5     2     3   ar
     6     3     4   ar
     7     4    10    1
     8    10    11    1
     9    11    12    1
    10    12    13    1
    11    13    14    1
    12    14    15    1
    13    15    16    1
    14    16    17    1
    15     4     5   ar
    16     5     6   ar
    17     6     1   ar
    18    17    12    1
    19    15    18    1
@<TRIPOS>MOLECULE
*****
 18 19 0 0 0
SMALL
GASTEIGER

@<TRIPOS>ATOM
      1 C         140.0080  142.0976  169.6237 C.ar    1  UNL1        0.2900
      2 C         139.5809  140.7089  169.2511 C.ar    1  UNL1        0.0749
      3 C         139.6812  140.2501  167.8265 C.ar    1  UNL1        0.0021
      4 C         140.2087  141.1801  166.7745 C.ar    1  UNL1       -0.0204
      5 C         140.6358  142.5689  167.1471 C.ar    1  UNL1        0.0021
      6 C         140.5355  143.0276  168.5717 C.ar    1  UNL1        0.0749
      7 O         138.9328  143.6332  171.4226 O.2     1  UNL1        0.0415
      8 N         139.9077  142.5564  171.0483 N.pl3   1  UNL1        0.0809
      9 O         140.7822  141.9384  172.0986 O.co2   1  UNL1       -0.5760
     10 C         140.3090  140.7214  165.3499 C.3     1  UNL1        0.0437
     11 C         140.8733  141.6376  164.3049 C.3     1  UNL1        0.0769
     12 N         140.0143  142.7117  163.7062 N.3     1  UNL1       -0.2700
     13 C         140.5976  144.0622  163.4131 C.3     1  UNL1        0.0894
     14 C         139.7386  145.1363  162.8145 C.3     1  UNL1        0.0862
     15 N         138.2963  144.8599  162.5089 N.3     1  UNL1       -0.2951
     16 C         137.7130  143.5094  162.8020 C.3     1  UNL1        0.0862
     17 C         138.5720  142.4353  163.4007 C.3     1  UNL1        0.0894
     18 H         138.1700  145.0247  161.5102 H       1  UNL1        0.1233
@<TRIPOS>UNITY_ATOM_ATTR
8 1
charge 1
9 1
charge -1
@<TRIPOS>BOND
     1     7     8    2
     2     8     9    1
     3     8     1    1
     4     1     2   ar
     5     2     3   ar
     6     3     4   ar
     7     4    10    1
     8    10    11    1
     9    11    12    1
    10    12    13    1
    11    13    14    1
    12    14    15    1
    13    15    16    1
    14    16    17    1
    15     4     5   ar
    16     5     6   ar
    17     6     1   ar
    18    17    12    1
    19    15    18    1
@<TRIPOS>MOLECULE
*****
 18 19 0 0 0
SMALL
GASTEIGER

@<TRIPOS>ATOM
      1 C         141.0500  142.9366  169.1079 C.ar    1  UNL1        0.2900
      2 C         142.4825  142.5008  169.1976 C.ar    1  UNL1        0.0749
      3 C         143.1730  141.9402  167.9897 C.ar    1  UNL1        0.0021
      4 C         142.4310  141.8153  166.6921 C.ar    1  UNL1       -0.0204
      5 C         140.9985  142.2511  166.6024 C.ar    1  UNL1        0.0021
      6 C         140.3080  142.8117  167.8103 C.ar    1  UNL1        0.0749
      7 O         140.0747  142.6140  171.4942 O.2     1  UNL1        0.0415
      8 N         140.3596  143.4972  170.3157 N.pl3   1  UNL1        0.0809
      9 O         139.9540  144.9410  170.3452 O.co2   1  UNL1       -0.5760
     10 C         143.1215  141.2547  165.4843 C.3     1  UNL1        0.0437
     11 C         143.4856  139.8004  165.4360 C.3     1  UNL1        0.0769
     12 N         142.8913  138.9130  164.3828 N.3     1  UNL1       -0.2700
     13 C         141.7135  138.0441  164.7114 C.3     1  UNL1        0.0894
     14 C         141.1192  137.1567  163.6583 C.3     1  UNL1        0.0862
     15 N         141.7027  137.1381  162.2765 N.3     1  UNL1       -0.2951
     16 C         142.8804  138.0069  161.9479 C.3     1  UNL1        0.0862
     17 C         143.4748  138.8943  163.0011 C.3     1  UNL1        0.0894
     18 H         140.9536  137.4033  161.6369 H       1  UNL1        0.1233
@<TRIPOS>UNITY_ATOM_ATTR
8 1
charge 1
9 1
charge -1
@<TRIPOS>BOND
     1     7     8    2
     2     8     9    1
     3     8     1    1
     4     1     2   ar
     5     2     3   ar
     6     3     4   ar
     7     4    10    1
     8    10    11    1
     9    11    12    1
    10    12    13    1
    11    13    14    1
    12    14    15    1
    13    15    16    1
    14    16    17    1
    15     4     5   ar
    16     5     6   ar
    17     6     1   ar
    18    17    12    1
    19    15    18    1
@<TRIPOS>MOLECULE
*****
 18 19 0 0 0
SMALL
GASTEIGER

@<TRIPOS>ATOM
      1 C         140.3130  142.0298  169.5137 C.ar    1  UNL1        0.2900
      2 C         139.4647  140.8081  169.3188 C.ar    1  UNL1        0.0749
      3 C         139.6462  139.9560  168.0977 C.ar    1  UNL1        0.0021
      4 C         140.6760  140.3255  167.0716 C.ar    1  UNL1       -0.0204
      5 C         141.5242  141.5472  167.2665 C.ar    1  UNL1        0.0021
      6 C         141.3427  142.3993  168.4875 C.ar    1  UNL1        0.0749
      7 O         139.6962  144.3104  170.5944 O.2     1  UNL1        0.0415
      8 N         140.1315  142.8819  170.7347 N.pl3   1  UNL1        0.0809
      9 O         140.3852  142.3055  172.0960 O.co2   1  UNL1       -0.5760
     10 C         140.8575  139.4734  165.8505 C.3     1  UNL1        0.0437
     11 C         140.8731  140.1056  164.4904 C.3     1  UNL1        0.0769
     12 N         139.5822  140.4035  163.7869 N.3     1  UNL1       -0.2700
     13 C         138.8080  141.6409  164.1324 C.3     1  UNL1        0.0894
     14 C         137.5171  141.9388  163.4289 C.3     1  UNL1        0.0862
     15 N         137.0004  140.9993  162.3799 N.3     1  UNL1       -0.2951
     16 C         137.7746  139.7618  162.0345 C.3     1  UNL1        0.0862
     17 C         139.0655  139.4639  162.7380 C.3     1  UNL1        0.0894
     18 H         136.9097  141.5396  161.5196 H       1  UNL1        0.1233
@<TRIPOS>UNITY_ATOM_ATTR
8 1
charge 1
9 1
charge -1
@<TRIPOS>BOND
     1     7     8    2
     2     8     9    1
     3     8     1    1
     4     1     2   ar
     5     2     3   ar
     6     3     4   ar
     7     4    10    1
     8    10    11    1
     9    11    12    1
    10    12    13    1
    11    13    14    1
    12    14    15    1
    13    15    16    1
    14    16    17    1
    15     4     5   ar
    16     5     6   ar
    17     6     1   ar
    18    17    12    1
    19    15    18    1
