@<TRIPOS>MOLECULE
*****
 30 33 0 0 0
SMALL
GASTEIGER

@<TRIPOS>ATOM
      1 C         139.7930  138.3111  162.5654 C.ar    1  UNL1        0.0853
      2 C         141.1205  137.6127  162.5753 C.ar    1  UNL1        0.1045
      3 N         142.0477  137.7807  163.7423 N.ar    1  UNL1       -0.2436
      4 C         141.6475  138.6473  164.8995 C.ar    1  UNL1        0.0825
      5 C         142.5747  138.8154  166.0665 C.ar    1  UNL1        0.0191
      6 C         142.1745  139.6818  167.2237 C.ar    1  UNL1        0.0016
      7 C         140.8470  140.3803  167.2138 C.ar    1  UNL1        0.0016
      8 C         139.9198  140.2122  166.0467 C.ar    1  UNL1        0.0028
      9 C         140.3200  139.3457  164.8896 C.ar    1  UNL1        0.0309
     10 C         139.3928  139.1776  163.7225 C.ar    1  UNL1        0.0519
     11 C         140.4468  141.2468  168.3710 C.ar    1  UNL1        0.0192
     12 C         140.8250  142.6982  168.3871 C.ar    1  UNL1        0.0031
     13 C         140.4248  143.5647  169.5443 C.ar    1  UNL1        0.0207
     14 C         139.6464  142.9798  170.6853 C.ar    1  UNL1        0.0989
     15 N         139.2682  141.5283  170.6691 N.ar    1  UNL1       -0.2423
     16 C         139.6684  140.6618  169.5120 C.ar    1  UNL1        0.0988
     17 N         139.3965  138.2402  159.9987 N.am    1  UNL1       -0.3252
     18 C         138.8658  138.1429  161.3983 C.2     1  UNL1        0.2455
     19 O         137.4079  137.8776  161.6308 O.2     1  UNL1       -0.2703
     20 H         138.7880  138.1298  159.2327 H       1  UNL1        0.1453
     21 H         140.3534  138.4143  159.8461 H       1  UNL1        0.1453
     22 N         138.0653  139.8760  163.7126 N.pl3   1  UNL1       -0.3325
     23 H         137.2885  139.4630  164.1544 H       1  UNL1        0.1468
     24 C         137.9215  141.2037  163.0295 C.3     1  UNL1        0.0870
     25 C         138.5985  142.4161  163.5966 C.3     1  UNL1        0.0195
     26 C         140.0178  142.7261  163.2232 C.3     1  UNL1        0.0017
     27 C         140.6948  143.9386  163.7903 C.3     1  UNL1        0.0001
     28 C         139.9526  144.8410  164.7308 C.3     1  UNL1        0.0000
     29 C         138.5332  144.5310  165.1043 C.3     1  UNL1        0.0001
     30 C         137.8562  143.3186  164.5372 C.3     1  UNL1        0.0017
@<TRIPOS>BOND
     1    17    18   am
     2    18    19    2
     3    18     1    1
     4     1     2   ar
     5     2     3   ar
     6     3     4   ar
     7     4     5   ar
     8     5     6   ar
     9     6     7   ar
    10     7    11    1
    11    11    12   ar
    12    12    13   ar
    13    13    14   ar
    14    14    15   ar
    15    15    16   ar
    16     7     8   ar
    17     8     9   ar
    18     9    10   ar
    19    10    22    1
    20    22    24    1
    21    24    25    1
    22    25    26    1
    23    26    27    1
    24    27    28    1
    25    28    29    1
    26    29    30    1
    27    10     1   ar
    28    30    25    1
    29     9     4   ar
    30    16    11   ar
    31    17    20    1
    32    17    21    1
    33    22    23    1
@<TRIPOS>MOLECULE
*****
 30 33 0 0 0
SMALL
GASTEIGER

@<TRIPOS>ATOM
      1 C         139.9725  144.2518  162.0805 C.ar    1  UNL1        0.0853
      2 C         139.1673  143.0813  161.5992 C.ar    1  UNL1        0.1045
      3 N         138.9040  141.9241  162.5164 N.ar    1  UNL1       -0.2436
      4 C         139.4458  141.9373  163.9151 C.ar    1  UNL1        0.0825
      5 C         139.1825  140.7801  164.8324 C.ar    1  UNL1        0.0191
      6 C         139.7243  140.7933  166.2310 C.ar    1  UNL1        0.0016
      7 C         140.5295  141.9638  166.7124 C.ar    1  UNL1        0.0016
      8 C         140.7928  143.1210  165.7951 C.ar    1  UNL1        0.0028
      9 C         140.2510  143.1078  164.3965 C.ar    1  UNL1        0.0309
     10 C         140.5143  144.2650  163.4792 C.ar    1  UNL1        0.0519
     11 C         141.0713  141.9769  168.1111 C.ar    1  UNL1        0.0192
     12 C         142.5270  142.2493  168.3490 C.ar    1  UNL1        0.0031
     13 C         143.0689  142.2625  169.7477 C.ar    1  UNL1        0.0207
     14 C         142.1549  142.0033  170.9085 C.ar    1  UNL1        0.0989
     15 N         140.6991  141.7309  170.6706 N.ar    1  UNL1       -0.2423
     16 C         140.1573  141.7177  169.2719 C.ar    1  UNL1        0.0988
     17 N         141.4627  145.4180  160.3003 N.am    1  UNL1       -0.3252
     18 C         140.2358  145.4091  161.1632 C.2     1  UNL1        0.2455
     19 O         139.2723  146.5574  161.1088 O.2     1  UNL1       -0.2703
     20 H         141.6356  146.1775  159.6982 H       1  UNL1        0.1453
     21 H         142.0951  144.6643  160.3360 H       1  UNL1        0.1453
     22 N         141.3195  145.4355  163.9605 N.pl3   1  UNL1       -0.3325
     23 H         140.8934  146.1347  164.5071 H       1  UNL1        0.1468
     24 C         142.7740  145.5406  163.6091 C.3     1  UNL1        0.0870
     25 C         143.6257  144.3067  163.5639 C.3     1  UNL1        0.0195
     26 C         144.1182  143.6882  164.8386 C.3     1  UNL1        0.0017
     27 C         144.9699  142.4543  164.7934 C.3     1  UNL1        0.0001
     28 C         145.3291  141.8389  163.4735 C.3     1  UNL1        0.0000
     29 C         144.8367  142.4574  162.1987 C.3     1  UNL1        0.0001
     30 C         143.9850  143.6913  162.2439 C.3     1  UNL1        0.0017
@<TRIPOS>BOND
     1    17    18   am
     2    18    19    2
     3    18     1    1
     4     1     2   ar
     5     2     3   ar
     6     3     4   ar
     7     4     5   ar
     8     5     6   ar
     9     6     7   ar
    10     7    11    1
    11    11    12   ar
    12    12    13   ar
    13    13    14   ar
    14    14    15   ar
    15    15    16   ar
    16     7     8   ar
    17     8     9   ar
    18     9    10   ar
    19    10    22    1
    20    22    24    1
    21    24    25    1
    22    25    26    1
    23    26    27    1
    24    27    28    1
    25    28    29    1
    26    29    30    1
    27    10     1   ar
    28    30    25    1
    29     9     4   ar
    30    16    11   ar
    31    17    20    1
    32    17    21    1
    33    22    23    1
@<TRIPOS>MOLECULE
*****
 30 33 0 0 0
SMALL
GASTEIGER

@<TRIPOS>ATOM
      1 C         139.9685  141.7014  169.3016 C.ar    1  UNL1        0.0853
      2 C         139.0167  140.7482  169.9614 C.ar    1  UNL1        0.1045
      3 N         138.3886  139.6435  169.1645 N.ar    1  UNL1       -0.2436
      4 C         138.7124  139.4921  167.7076 C.ar    1  UNL1        0.0825
      5 C         138.0844  138.3874  166.9106 C.ar    1  UNL1        0.0191
      6 C         138.4082  138.2360  165.4539 C.ar    1  UNL1        0.0016
      7 C         139.3600  139.1892  164.7941 C.ar    1  UNL1        0.0016
      8 C         139.9880  140.2939  165.5911 C.ar    1  UNL1        0.0028
      9 C         139.6643  140.4453  167.0478 C.ar    1  UNL1        0.0309
     10 C         140.2923  141.5500  167.8449 C.ar    1  UNL1        0.0519
     11 C         139.6838  139.0378  163.3373 C.ar    1  UNL1        0.0192
     12 C         140.8435  139.7824  162.7453 C.ar    1  UNL1        0.0031
     13 C         141.1673  139.6310  161.2885 C.ar    1  UNL1        0.0207
     14 C         140.3313  138.7348  160.4237 C.ar    1  UNL1        0.0989
     15 N         139.1715  137.9901  161.0157 N.ar    1  UNL1       -0.2423
     16 C         138.8478  138.1416  162.4724 C.ar    1  UNL1        0.0988
     17 N         141.5834  142.4826  171.1811 N.am    1  UNL1       -0.3252
     18 C         140.5966  142.8062  170.0987 C.2     1  UNL1        0.2455
     19 O         140.2379  144.2344  169.8133 O.2     1  UNL1       -0.2703
     20 H         141.9956  143.2076  171.7042 H       1  UNL1        0.1453
     21 H         141.8188  141.5452  171.3683 H       1  UNL1        0.1453
     22 N         141.2442  142.5033  167.1851 N.pl3   1  UNL1       -0.3325
     23 H         140.9057  143.3313  166.7739 H       1  UNL1        0.1468
     24 C         142.7118  142.1949  167.1518 C.3     1  UNL1        0.0870
     25 C         143.2592  141.2644  166.1104 C.3     1  UNL1        0.0195
     26 C         143.8059  141.8141  164.8263 C.3     1  UNL1        0.0017
     27 C         144.3533  140.8835  163.7849 C.3     1  UNL1        0.0001
     28 C         144.3539  139.4033  164.0276 C.3     1  UNL1        0.0000
     29 C         143.8072  138.8536  165.3117 C.3     1  UNL1        0.0001
     30 C         143.2598  139.7841  166.3531 C.3     1  UNL1        0.0017
@<TRIPOS>BOND
     1    17    18   am
     2    18    19    2
     3    18     1    1
     4     1     2   ar
     5     2     3   ar
     6     3     4   ar
     7     4     5   ar
     8     5     6   ar
     9     6     7   ar
    10     7    11    1
    11    11    12   ar
    12    12    13   ar
    13    13    14   ar
    14    14    15   ar
    15    15    16   ar
    16     7     8   ar
    17     8     9   ar
    18     9    10   ar
    19    10    22    1
    20    22    24    1
    21    24    25    1
    22    25    26    1
    23    26    27    1
    24    27    28    1
    25    28    29    1
    26    29    30    1
    27    10     1   ar
    28    30    25    1
    29     9     4   ar
    30    16    11   ar
    31    17    20    1
    32    17    21    1
    33    22    23    1
@<TRIPOS>MOLECULE
*****
 30 33 0 0 0
SMALL
GASTEIGER

@<TRIPOS>ATOM
      1 C         144.0877  139.9684  162.1002 C.ar    1  UNL1        0.0853
      2 C         144.8097  141.2768  161.9698 C.ar    1  UNL1        0.1045
      3 N         144.8121  142.2492  163.1118 N.ar    1  UNL1       -0.2436
      4 C         144.0924  141.9133  164.3844 C.ar    1  UNL1        0.0825
      5 C         144.0948  142.8857  165.5265 C.ar    1  UNL1        0.0191
      6 C         143.3752  142.5497  166.7990 C.ar    1  UNL1        0.0016
      7 C         142.6533  141.2414  166.9294 C.ar    1  UNL1        0.0016
      8 C         142.6509  140.2690  165.7874 C.ar    1  UNL1        0.0028
      9 C         143.3705  140.6049  164.5149 C.ar    1  UNL1        0.0309
     10 C         143.3681  139.6325  163.3727 C.ar    1  UNL1        0.0519
     11 C         141.9337  140.9055  168.2020 C.ar    1  UNL1        0.0192
     12 C         140.4681  140.5874  168.1734 C.ar    1  UNL1        0.0031
     13 C         139.7485  140.2515  169.4459 C.ar    1  UNL1        0.0207
     14 C         140.4945  140.2337  170.7471 C.ar    1  UNL1        0.0989
     15 N         141.9602  140.5518  170.7757 N.ar    1  UNL1       -0.2423
     16 C         142.6797  140.8877  169.5032 C.ar    1  UNL1        0.0988
     17 N         143.9738  139.4955  159.5480 N.am    1  UNL1       -0.3252
     18 C         144.0854  138.9960  160.9580 C.2     1  UNL1        0.2455
     19 O         144.1946  137.5242  161.2259 O.2     1  UNL1       -0.2703
     20 H         143.9722  138.8573  158.7984 H       1  UNL1        0.1453
     21 H         143.9021  140.4615  159.3723 H       1  UNL1        0.1453
     22 N         142.6462  138.3242  163.5031 N.pl3   1  UNL1       -0.3325
     23 H         143.1145  137.5374  163.8650 H       1  UNL1        0.1468
     24 C         141.2106  138.2145  163.0822 C.3     1  UNL1        0.0870
     25 C         140.1180  138.5950  164.0369 C.3     1  UNL1        0.0195
     26 C         139.5727  137.5789  164.9962 C.3     1  UNL1        0.0017
     27 C         138.4801  137.9594  165.9509 C.3     1  UNL1        0.0001
     28 C         137.9328  139.3560  165.9463 C.3     1  UNL1        0.0000
     29 C         138.4780  140.3721  164.9870 C.3     1  UNL1        0.0001
     30 C         139.5706  139.9916  164.0323 C.3     1  UNL1        0.0017
@<TRIPOS>BOND
     1    17    18   am
     2    18    19    2
     3    18     1    1
     4     1     2   ar
     5     2     3   ar
     6     3     4   ar
     7     4     5   ar
     8     5     6   ar
     9     6     7   ar
    10     7    11    1
    11    11    12   ar
    12    12    13   ar
    13    13    14   ar
    14    14    15   ar
    15    15    16   ar
    16     7     8   ar
    17     8     9   ar
    18     9    10   ar
    19    10    22    1
    20    22    24    1
    21    24    25    1
    22    25    26    1
    23    26    27    1
    24    27    28    1
    25    28    29    1
    26    29    30    1
    27    10     1   ar
    28    30    25    1
    29     9     4   ar
    30    16    11   ar
    31    17    20    1
    32    17    21    1
    33    22    23    1
@<TRIPOS>MOLECULE
*****
 30 33 0 0 0
SMALL
GASTEIGER

@<TRIPOS>ATOM
      1 C         140.9086  144.8082  161.9584 C.ar    1  UNL1        0.0853
      2 C         142.3413  144.4627  161.6791 C.ar    1  UNL1        0.1045
      3 N         143.1335  143.6796  162.6837 N.ar    1  UNL1       -0.2436
      4 C         142.4930  143.2420  163.9675 C.ar    1  UNL1        0.0825
      5 C         143.2852  142.4588  164.9721 C.ar    1  UNL1        0.0191
      6 C         142.6446  142.0212  166.2559 C.ar    1  UNL1        0.0016
      7 C         141.2119  142.3668  166.5351 C.ar    1  UNL1        0.0016
      8 C         140.4198  143.1499  165.5306 C.ar    1  UNL1        0.0028
      9 C         141.0603  143.5875  164.2468 C.ar    1  UNL1        0.0309
     10 C         140.2681  144.3706  163.2422 C.ar    1  UNL1        0.0519
     11 C         140.5714  141.9291  167.8190 C.ar    1  UNL1        0.0192
     12 C         140.5204  142.8661  168.9892 C.ar    1  UNL1        0.0031
     13 C         139.8799  142.4284  170.2731 C.ar    1  UNL1        0.0207
     14 C         139.2905  141.0538  170.3867 C.ar    1  UNL1        0.0989
     15 N         139.3416  140.1168  169.2164 N.ar    1  UNL1       -0.2423
     16 C         139.9820  140.5544  167.9326 C.ar    1  UNL1        0.0988
     17 N         140.0202  145.1117  159.5358 N.am    1  UNL1       -0.3252
     18 C         140.1164  145.5914  160.9538 C.2     1  UNL1        0.2455
     19 O         139.4204  146.8542  161.3672 O.2     1  UNL1       -0.2703
     20 H         139.5003  145.6257  158.8765 H       1  UNL1        0.1453
     21 H         140.4770  144.2828  159.2645 H       1  UNL1        0.1453
     22 N         138.8354  144.7161  163.5215 N.pl3   1  UNL1       -0.3325
     23 H         138.6176  145.4804  164.1027 H       1  UNL1        0.1468
     24 C         137.7345  143.8972  162.9152 C.3     1  UNL1        0.0870
     25 C         137.8733  142.4066  162.8210 C.3     1  UNL1        0.0195
     26 C         138.0317  141.7514  161.4810 C.3     1  UNL1        0.0017
     27 C         138.1705  140.2608  161.3868 C.3     1  UNL1        0.0001
     28 C         138.1509  139.4255  162.6325 C.3     1  UNL1        0.0000
     29 C         137.9924  140.0807  163.9725 C.3     1  UNL1        0.0001
     30 C         137.8536  141.5713  164.0667 C.3     1  UNL1        0.0017
@<TRIPOS>BOND
     1    17    18   am
     2    18    19    2
     3    18     1    1
     4     1     2   ar
     5     2     3   ar
     6     3     4   ar
     7     4     5   ar
     8     5     6   ar
     9     6     7   ar
    10     7    11    1
    11    11    12   ar
    12    12    13   ar
    13    13    14   ar
    14    14    15   ar
    15    15    16   ar
    16     7     8   ar
    17     8     9   ar
    18     9    10   ar
    19    10    22    1
    20    22    24    1
    21    24    25    1
    22    25    26    1
    23    26    27    1
    24    27    28    1
    25    28    29    1
    26    29    30    1
    27    10     1   ar
    28    30    25    1
    29     9     4   ar
    30    16    11   ar
    31    17    20    1
    32    17    21    1
    33    22    23    1
@<TRIPOS>MOLECULE
*****
 30 33 0 0 0
SMALL
GASTEIGER

@<TRIPOS>ATOM
      1 C         140.6716  140.7271  169.7749 C.ar    1  UNL1        0.0853
      2 C         139.2486  140.3616  170.0778 C.ar    1  UNL1        0.1045
      3 N         138.4006  139.7122  169.0247 N.ar    1  UNL1       -0.2436
      4 C         138.9755  139.4281  167.6686 C.ar    1  UNL1        0.0825
      5 C         138.1275  138.7787  166.6155 C.ar    1  UNL1        0.0191
      6 C         138.7024  138.4947  165.2596 C.ar    1  UNL1        0.0016
      7 C         140.1254  138.8601  164.9566 C.ar    1  UNL1        0.0016
      8 C         140.9734  139.5096  166.0097 C.ar    1  UNL1        0.0028
      9 C         140.3985  139.7936  167.3657 C.ar    1  UNL1        0.0309
     10 C         141.2465  140.4431  168.4189 C.ar    1  UNL1        0.0519
     11 C         140.7002  138.5761  163.6006 C.ar    1  UNL1        0.0192
     12 C         142.1791  138.3849  163.4379 C.ar    1  UNL1        0.0031
     13 C         142.7540  138.1009  162.0818 C.ar    1  UNL1        0.0207
     14 C         141.8500  138.0080  160.8884 C.ar    1  UNL1        0.0989
     15 N         140.3711  138.1992  161.0512 N.ar    1  UNL1       -0.2423
     16 C         139.7962  138.4832  162.4072 C.ar    1  UNL1        0.0988
     17 N         142.4669  140.5481  171.6444 N.am    1  UNL1       -0.3252
     18 C         141.5196  141.3766  170.8281 C.2     1  UNL1        0.2455
     19 O         141.4203  142.8544  171.0649 O.2     1  UNL1       -0.2703
     20 H         143.0235  140.9744  172.3356 H       1  UNL1        0.1453
     21 H         142.5320  139.5782  171.4890 H       1  UNL1        0.1453
     22 N         142.6694  140.8085  168.1160 N.pl3   1  UNL1       -0.3325
     23 H         143.3982  140.1928  168.3590 H       1  UNL1        0.1468
     24 C         142.9819  142.1121  167.4429 C.3     1  UNL1        0.0870
     25 C         142.8830  142.2283  165.9507 C.3     1  UNL1        0.0195
     26 C         141.7465  142.9863  165.3311 C.3     1  UNL1        0.0017
     27 C         141.6476  143.1024  163.8389 C.3     1  UNL1        0.0001
     28 C         142.6851  142.4607  162.9662 C.3     1  UNL1        0.0000
     29 C         143.8217  141.7026  163.5858 C.3     1  UNL1        0.0001
     30 C         143.9206  141.5864  165.0780 C.3     1  UNL1        0.0017
@<TRIPOS>BOND
     1    17    18   am
     2    18    19    2
     3    18     1    1
     4     1     2   ar
     5     2     3   ar
     6     3     4   ar
     7     4     5   ar
     8     5     6   ar
     9     6     7   ar
    10     7    11    1
    11    11    12   ar
    12    12    13   ar
    13    13    14   ar
    14    14    15   ar
    15    15    16   ar
    16     7     8   ar
    17     8     9   ar
    18     9    10   ar
    19    10    22    1
    20    22    24    1
    21    24    25    1
    22    25    26    1
    23    26    27    1
    24    27    28    1
    25    28    29    1
    26    29    30    1
    27    10     1   ar
    28    30    25    1
    29     9     4   ar
    30    16    11   ar
    31    17    20    1
    32    17    21    1
    33    22    23    1
@<TRIPOS>MOLECULE
*****
 30 33 0 0 0
SMALL
GASTEIGER

@<TRIPOS>ATOM
      1 C         141.2241  141.7017  168.8370 C.ar    1  UNL1        0.0853
      2 C         140.2522  141.0358  169.7655 C.ar    1  UNL1        0.1045
      3 N         139.2287  140.0831  169.2225 N.ar    1  UNL1       -0.2436
      4 C         139.1771  139.7962  167.7510 C.ar    1  UNL1        0.0825
      5 C         138.1537  138.8435  167.2081 C.ar    1  UNL1        0.0191
      6 C         138.1021  138.5567  165.7367 C.ar    1  UNL1        0.0016
      7 C         139.0740  139.2226  164.8082 C.ar    1  UNL1        0.0016
      8 C         140.0975  140.1753  165.3512 C.ar    1  UNL1        0.0028
      9 C         140.1490  140.4621  166.8226 C.ar    1  UNL1        0.0309
     10 C         141.1725  141.4149  167.3656 C.ar    1  UNL1        0.0519
     11 C         139.0224  138.9358  163.3368 C.ar    1  UNL1        0.0192
     12 C         137.9711  139.5809  162.4833 C.ar    1  UNL1        0.0031
     13 C         137.9195  139.2941  161.0118 C.ar    1  UNL1        0.0207
     14 C         138.9193  138.3621  160.3939 C.ar    1  UNL1        0.0989
     15 N         139.9706  137.7169  161.2475 N.ar    1  UNL1       -0.2423
     16 C         140.0222  138.0038  162.7189 C.ar    1  UNL1        0.0988
     17 N         141.8637  143.6430  170.4408 N.am    1  UNL1       -0.3252
     18 C         142.2476  142.6544  169.3801 C.2     1  UNL1        0.2455
     19 O         143.6549  142.6185  168.8624 O.2     1  UNL1       -0.2703
     20 H         142.5354  144.2684  170.7972 H       1  UNL1        0.1453
     21 H         140.9400  143.6666  170.7806 H       1  UNL1        0.1453
     22 N         142.1444  142.0808  166.4372 N.pl3   1  UNL1       -0.3325
     23 H         143.0245  141.6723  166.2702 H       1  UNL1        0.1468
     24 C         141.7754  143.3690  165.7631 C.3     1  UNL1        0.0870
     25 C         140.5506  143.4398  164.9000 C.3     1  UNL1        0.0195
     26 C         139.2587  143.9443  165.4713 C.3     1  UNL1        0.0017
     27 C         138.0339  144.0151  164.6082 C.3     1  UNL1        0.0001
     28 C         138.1011  143.5815  163.1738 C.3     1  UNL1        0.0000
     29 C         139.3931  143.0770  162.6025 C.3     1  UNL1        0.0001
     30 C         140.6179  143.0062  163.4656 C.3     1  UNL1        0.0017
@<TRIPOS>BOND
     1    17    18   am
     2    18    19    2
     3    18     1    1
     4     1     2   ar
     5     2     3   ar
     6     3     4   ar
     7     4     5   ar
     8     5     6   ar
     9     6     7   ar
    10     7    11    1
    11    11    12   ar
    12    12    13   ar
    13    13    14   ar
    14    14    15   ar
    15    15    16   ar
    16     7     8   ar
    17     8     9   ar
    18     9    10   ar
    19    10    22    1
    20    22    24    1
    21    24    25    1
    22    25    26    1
    23    26    27    1
    24    27    28    1
    25    28    29    1
    26    29    30    1
    27    10     1   ar
    28    30    25    1
    29     9     4   ar
    30    16    11   ar
    31    17    20    1
    32    17    21    1
    33    22    23    1
@<TRIPOS>MOLECULE
*****
 30 33 0 0 0
SMALL
GASTEIGER

@<TRIPOS>ATOM
      1 C         140.9367  141.2042  169.4189 C.ar    1  UNL1        0.0853
      2 C         141.8162  142.3956  169.6571 C.ar    1  UNL1        0.1045
      3 N         142.7712  142.8477  168.5924 N.ar    1  UNL1       -0.2436
      4 C         142.8467  142.1084  167.2894 C.ar    1  UNL1        0.0825
      5 C         143.8017  142.5605  166.2248 C.ar    1  UNL1        0.0191
      6 C         143.8771  141.8211  164.9219 C.ar    1  UNL1        0.0016
      7 C         142.9975  140.6296  164.6837 C.ar    1  UNL1        0.0016
      8 C         142.0425  140.1775  165.7483 C.ar    1  UNL1        0.0028
      9 C         141.9671  140.9169  167.0512 C.ar    1  UNL1        0.0309
     10 C         141.0121  140.4648  168.1160 C.ar    1  UNL1        0.0519
     11 C         143.0730  139.8902  163.3807 C.ar    1  UNL1        0.0192
     12 C         142.2024  138.6913  163.1472 C.ar    1  UNL1        0.0031
     13 C         142.2779  137.9519  161.8442 C.ar    1  UNL1        0.0207
     14 C         143.2239  138.4115  160.7747 C.ar    1  UNL1        0.0989
     15 N         144.0945  139.6106  161.0083 N.ar    1  UNL1       -0.2423
     16 C         144.0190  140.3499  162.3112 C.ar    1  UNL1        0.0988
     17 N         140.5056  140.1711  171.7634 N.am    1  UNL1       -0.3252
     18 C         139.9816  140.7521  170.4836 C.2     1  UNL1        0.2455
     19 O         138.5028  140.8810  170.2685 O.2     1  UNL1       -0.2703
     20 H         139.8788  139.8744  172.4623 H       1  UNL1        0.1453
     21 H         141.4762  140.0865  171.9046 H       1  UNL1        0.1453
     22 N         140.1325  139.2733  167.8777 N.pl3   1  UNL1       -0.3325
     23 H         140.4277  138.3786  168.1633 H       1  UNL1        0.1468
     24 C         138.8031  139.4451  167.2044 C.3     1  UNL1        0.0870
     25 C         138.6773  139.2256  165.7259 C.3     1  UNL1        0.0195
     26 C         138.9738  137.8770  165.1401 C.3     1  UNL1        0.0017
     27 C         138.8480  137.6574  163.6616 C.3     1  UNL1        0.0001
     28 C         138.4257  138.7864  162.7689 C.3     1  UNL1        0.0000
     29 C         138.1291  140.1351  163.3548 C.3     1  UNL1        0.0001
     30 C         138.2550  140.3547  164.8333 C.3     1  UNL1        0.0017
@<TRIPOS>BOND
     1    17    18   am
     2    18    19    2
     3    18     1    1
     4     1     2   ar
     5     2     3   ar
     6     3     4   ar
     7     4     5   ar
     8     5     6   ar
     9     6     7   ar
    10     7    11    1
    11    11    12   ar
    12    12    13   ar
    13    13    14   ar
    14    14    15   ar
    15    15    16   ar
    16     7     8   ar
    17     8     9   ar
    18     9    10   ar
    19    10    22    1
    20    22    24    1
    21    24    25    1
    22    25    26    1
    23    26    27    1
    24    27    28    1
    25    28    29    1
    26    29    30    1
    27    10     1   ar
    28    30    25    1
    29     9     4   ar
    30    16    11   ar
    31    17    20    1
    32    17    21    1
    33    22    23    1
@<TRIPOS>MOLECULE
*****
 30 33 0 0 0
SMALL
GASTEIGER

@<TRIPOS>ATOM
      1 C         138.9853  139.8714  162.2786 C.ar    1  UNL1        0.0853
      2 C         138.9959  141.2535  161.6958 C.ar    1  UNL1        0.1045
      3 N         139.2918  142.4347  162.5718 N.ar    1  UNL1       -0.2436
      4 C         139.5771  142.2337  164.0307 C.ar    1  UNL1        0.0825
      5 C         139.8729  143.4148  164.9066 C.ar    1  UNL1        0.0191
      6 C         140.1582  143.2138  166.3654 C.ar    1  UNL1        0.0016
      7 C         140.1477  141.8317  166.9483 C.ar    1  UNL1        0.0016
      8 C         139.8518  140.6506  166.0723 C.ar    1  UNL1        0.0028
      9 C         139.5665  140.8516  164.6135 C.ar    1  UNL1        0.0309
     10 C         139.2706  139.6704  163.7374 C.ar    1  UNL1        0.0519
     11 C         140.4330  141.6308  168.4072 C.ar    1  UNL1        0.0192
     12 C         140.4822  140.2444  168.9777 C.ar    1  UNL1        0.0031
     13 C         140.7675  140.0435  170.4366 C.ar    1  UNL1        0.0207
     14 C         141.0036  141.2289  171.3249 C.ar    1  UNL1        0.0989
     15 N         140.9544  142.6153  170.7542 N.ar    1  UNL1       -0.2423
     16 C         140.6691  142.8162  169.2954 C.ar    1  UNL1        0.0988
     17 N         139.5985  138.3607  160.2558 N.am    1  UNL1       -0.3252
     18 C         138.6894  138.6903  161.4025 C.2     1  UNL1        0.2455
     19 O         137.4846  137.8388  161.6732 O.2     1  UNL1       -0.2703
     20 H         139.4043  137.5855  159.6808 H       1  UNL1        0.1453
     21 H         140.3893  138.9195  160.0781 H       1  UNL1        0.1453
     22 N         139.2601  138.2883  164.3202 N.pl3   1  UNL1       -0.3325
     23 H         138.4556  137.9535  164.7784 H       1  UNL1        0.1468
     24 C         140.4753  137.4165  164.2050 C.3     1  UNL1        0.0870
     25 C         141.8430  138.0323  164.2061 C.3     1  UNL1        0.0195
     26 C         142.5365  138.3212  162.9078 C.3     1  UNL1        0.0017
     27 C         143.9043  138.9370  162.9090 C.3     1  UNL1        0.0001
     28 C         144.5785  139.2640  164.2084 C.3     1  UNL1        0.0000
     29 C         143.8849  138.9752  165.5067 C.3     1  UNL1        0.0001
     30 C         142.5172  138.3594  165.5056 C.3     1  UNL1        0.0017
@<TRIPOS>BOND
     1    17    18   am
     2    18    19    2
     3    18     1    1
     4     1     2   ar
     5     2     3   ar
     6     3     4   ar
     7     4     5   ar
     8     5     6   ar
     9     6     7   ar
    10     7    11    1
    11    11    12   ar
    12    12    13   ar
    13    13    14   ar
    14    14    15   ar
    15    15    16   ar
    16     7     8   ar
    17     8     9   ar
    18     9    10   ar
    19    10    22    1
    20    22    24    1
    21    24    25    1
    22    25    26    1
    23    26    27    1
    24    27    28    1
    25    28    29    1
    26    29    30    1
    27    10     1   ar
    28    30    25    1
    29     9     4   ar
    30    16    11   ar
    31    17    20    1
    32    17    21    1
    33    22    23    1
