@<TRIPOS>MOLECULE
*****
 34 37 0 0 0
SMALL
GASTEIGER

@<TRIPOS>ATOM
      1 C         142.5284  141.0611  167.2452 C.3     1  UNL1        0.1219
      2 C         142.2415  141.8090  165.9770 C.ar    1  UNL1       -0.0121
      3 C         143.3693  142.3953  165.1806 C.ar    1  UNL1       -0.0038
      4 C         143.0823  143.1432  163.9124 C.ar    1  UNL1       -0.0003
      5 C         141.6677  143.3047  163.4406 C.ar    1  UNL1        0.0001
      6 C         140.5399  142.7183  164.2370 C.ar    1  UNL1       -0.0003
      7 C         140.8268  141.9705  165.5052 C.ar    1  UNL1       -0.0038
      8 C         141.3807  144.0526  162.1724 C.ar    1  UNL1        0.0046
      9 C         140.2619  145.0506  162.1270 C.ar    1  UNL1        0.0208
     10 C         139.9749  145.7985  160.8587 C.ar    1  UNL1        0.1021
     11 N         140.8068  145.5482  159.6359 N.ar    1  UNL1       -0.2092
     12 N         140.7603  146.1299  158.2541 N.ar    1  UNL1       -0.1409
     13 C         141.8504  145.4913  157.4455 C.ar    1  UNL1        0.2213
     14 N         142.5706  144.5150  158.3275 N.ar    1  UNL1       -0.2034
     15 C         141.9257  144.5502  159.6813 C.ar    1  UNL1        0.1656
     16 C         142.2126  143.8024  160.9496 C.ar    1  UNL1        0.0389
     17 C         141.2165  142.4672  170.7168 C.3     1  UNL1        0.1149
     18 N         141.2501  141.7506  169.3994 N.am    1  UNL1       -0.2757
     19 C         140.0394  141.0068  168.9190 C.3     1  UNL1        0.1149
     20 C         142.4947  141.7777  168.5626 C.2     1  UNL1        0.2312
     21 O         143.7054  142.5214  169.0430 O.2     1  UNL1       -0.2745
     22 C         142.8491  139.5966  167.1961 C.3     1  UNL1        0.1413
     23 N         142.9747  138.8133  168.4692 N.3     1  UNL1       -0.3144
     24 H         142.8122  139.4299  169.2653 H       1  UNL1        0.1193
     25 H         143.9119  138.4157  168.5328 H       1  UNL1        0.1193
     26 C         143.0442  138.9155  165.8741 C.2     1  UNL1        0.2406
     27 O         144.4244  138.7575  165.3082 O.2     1  UNL1       -0.2734
     28 N         141.8591  138.3923  165.1177 N.am    1  UNL1       -0.2730
     29 C         141.8984  137.6929  163.7914 C.3     1  UNL1        0.0993
     30 C         140.4903  137.3451  163.4089 C.3     1  UNL1        0.0898
     31 C         139.5808  137.8295  164.4989 C.3     1  UNL1        0.2835
     32 F         138.4973  137.2586  163.6329 F       1  UNL1       -0.2024
     33 F         138.4448  138.1947  165.4079 F       1  UNL1       -0.2024
     34 C         140.4268  138.4768  165.5550 C.3     1  UNL1        0.1601
@<TRIPOS>BOND
     1    17    18    1
     2    18    19    1
     3    18    20   am
     4    20    21    2
     5     1    20    1
     6     1     2    1
     7     2     3   ar
     8     3     4   ar
     9     4     5   ar
    10     5     8    1
    11     8     9   ar
    12     9    10   ar
    13    10    11   ar
    14    11    12   ar
    15    12    13   ar
    16    13    14   ar
    17    14    15   ar
    18    15    16   ar
    19     5     6   ar
    20     6     7   ar
    21     1    22    1
    22    22    23    1
    23    22    26    1
    24    26    27    2
    25    26    28   am
    26    28    29    1
    27    29    30    1
    28    30    31    1
    29    31    32    1
    30    31    33    1
    31    31    34    1
    32     7     2   ar
    33    34    28    1
    34    16     8   ar
    35    15    11   ar
    36    23    24    1
    37    23    25    1
@<TRIPOS>MOLECULE
*****
 34 37 0 0 0
SMALL
GASTEIGER

@<TRIPOS>ATOM
      1 C         142.1137  141.5677  167.7753 C.3     1  UNL1        0.1219
      2 C         141.8964  142.2209  166.4426 C.ar    1  UNL1       -0.0121
      3 C         142.9851  142.2005  165.4110 C.ar    1  UNL1       -0.0038
      4 C         142.7678  142.8537  164.0783 C.ar    1  UNL1       -0.0003
      5 C         141.4618  143.5272  163.7772 C.ar    1  UNL1        0.0001
      6 C         140.3731  143.5475  164.8087 C.ar    1  UNL1       -0.0003
      7 C         140.5903  142.8943  166.1415 C.ar    1  UNL1       -0.0038
      8 C         141.2445  144.1804  162.4444 C.ar    1  UNL1        0.0046
      9 C         140.1854  145.2309  162.2879 C.ar    1  UNL1        0.0208
     10 C         139.9681  145.8841  160.9551 C.ar    1  UNL1        0.1021
     11 N         140.8099  145.4866  159.7789 N.ar    1  UNL1       -0.2092
     12 N         140.8255  145.9517  158.3529 N.ar    1  UNL1       -0.1409
     13 C         141.8942  145.1885  157.6282 C.ar    1  UNL1        0.2213
     14 N         142.5392  144.2517  158.6063 N.ar    1  UNL1       -0.2034
     15 C         141.8690  144.4360  159.9355 C.ar    1  UNL1        0.1656
     16 C         142.0863  143.7829  161.2682 C.ar    1  UNL1        0.0389
     17 C         142.5170  143.7194  171.0855 C.3     1  UNL1        0.1149
     18 N         141.8859  142.9466  169.9655 N.am    1  UNL1       -0.2757
     19 C         140.3960  142.7797  169.9156 C.3     1  UNL1        0.1149
     20 C         142.7447  142.3406  168.8954 C.2     1  UNL1        0.2312
     21 O         144.2345  142.5075  168.9453 O.2     1  UNL1       -0.2745
     22 C         141.6999  140.1417  167.9880 C.3     1  UNL1        0.1413
     23 N         142.6819  139.1499  168.5378 N.3     1  UNL1       -0.3144
     24 H         143.5742  139.6137  168.7085 H       1  UNL1        0.1193
     25 H         142.8146  138.3943  167.8656 H       1  UNL1        0.1193
     26 C         140.3044  139.7074  167.6509 C.2     1  UNL1        0.2406
     27 O         139.1966  139.9069  168.6424 O.2     1  UNL1       -0.2734
     28 N         140.0164  139.0736  166.3222 N.am    1  UNL1       -0.2730
     29 C         138.6779  138.5914  165.8469 C.3     1  UNL1        0.0993
     30 C         138.8507  138.0305  164.4665 C.3     1  UNL1        0.0898
     31 C         140.2960  138.1661  164.0887 C.3     1  UNL1        0.2835
     32 F         139.8586  137.5216  162.8067 F       1  UNL1       -0.2024
     33 F         141.6498  138.1669  163.4428 F       1  UNL1       -0.2024
     34 C         141.0164  138.8107  165.2355 C.3     1  UNL1        0.1601
@<TRIPOS>BOND
     1    17    18    1
     2    18    19    1
     3    18    20   am
     4    20    21    2
     5     1    20    1
     6     1     2    1
     7     2     3   ar
     8     3     4   ar
     9     4     5   ar
    10     5     8    1
    11     8     9   ar
    12     9    10   ar
    13    10    11   ar
    14    11    12   ar
    15    12    13   ar
    16    13    14   ar
    17    14    15   ar
    18    15    16   ar
    19     5     6   ar
    20     6     7   ar
    21     1    22    1
    22    22    23    1
    23    22    26    1
    24    26    27    2
    25    26    28   am
    26    28    29    1
    27    29    30    1
    28    30    31    1
    29    31    32    1
    30    31    33    1
    31    31    34    1
    32     7     2   ar
    33    34    28    1
    34    16     8   ar
    35    15    11   ar
    36    23    24    1
    37    23    25    1
@<TRIPOS>MOLECULE
*****
 34 37 0 0 0
SMALL
GASTEIGER

@<TRIPOS>ATOM
      1 C         141.0899  141.9696  168.1813 C.3     1  UNL1        0.1219
      2 C         141.0329  142.5752  166.8102 C.ar    1  UNL1       -0.0121
      3 C         139.7116  142.9664  166.2175 C.ar    1  UNL1       -0.0038
      4 C         139.6546  143.5720  164.8464 C.ar    1  UNL1       -0.0003
      5 C         140.9187  143.7864  164.0680 C.ar    1  UNL1        0.0001
      6 C         142.2399  143.3952  164.6607 C.ar    1  UNL1       -0.0003
      7 C         142.2970  142.7896  166.0318 C.ar    1  UNL1       -0.0038
      8 C         140.8617  144.3920  162.6968 C.ar    1  UNL1        0.0046
      9 C         139.8842  145.4909  162.4023 C.ar    1  UNL1        0.0208
     10 C         139.8272  146.0966  161.0311 C.ar    1  UNL1        0.1021
     11 N         140.7477  145.6032  159.9545 N.ar    1  UNL1       -0.2092
     12 N         140.9198  146.0044  158.5195 N.ar    1  UNL1       -0.1409
     13 C         142.0037  145.1534  157.9271 C.ar    1  UNL1        0.2213
     14 N         142.5015  144.2262  158.9960 N.ar    1  UNL1       -0.2034
     15 C         141.7253  144.5042  160.2491 C.ar    1  UNL1        0.1656
     16 C         141.7822  143.8986  161.6202 C.ar    1  UNL1        0.0389
     17 C         142.9456  143.8325  171.1539 C.3     1  UNL1        0.1149
     18 N         142.7070  142.9594  169.9577 N.am    1  UNL1       -0.2757
     19 C         143.8465  142.2032  169.3417 C.3     1  UNL1        0.1149
     20 C         141.3287  142.8426  169.3775 C.2     1  UNL1        0.2312
     21 O         140.1891  143.5988  169.9935 O.2     1  UNL1       -0.2745
     22 C         140.9083  140.4909  168.3563 C.3     1  UNL1        0.1413
     23 N         139.7483  139.9665  169.1497 N.3     1  UNL1       -0.3144
     24 H         139.1905  140.7482  169.4937 H       1  UNL1        0.1193
     25 H         140.0950  139.4225  169.9398 H       1  UNL1        0.1193
     26 C         141.8865  139.5368  167.7379 C.2     1  UNL1        0.2406
     27 O         143.0179  138.9877  168.5555 O.2     1  UNL1       -0.2734
     28 N         141.7335  139.1317  166.3017 N.am    1  UNL1       -0.2730
     29 C         142.6289  138.1914  165.5506 C.3     1  UNL1        0.0993
     30 C         142.1070  138.0743  164.1492 C.3     1  UNL1        0.0898
     31 C         140.8891  138.9422  164.0342 C.3     1  UNL1        0.2835
     32 F         140.8642  138.4486  162.6180 F       1  UNL1       -0.2024
     33 F         139.6659  139.7069  163.6231 F       1  UNL1       -0.2024
     34 C         140.6582  139.5957  165.3645 C.3     1  UNL1        0.1601
@<TRIPOS>BOND
     1    17    18    1
     2    18    19    1
     3    18    20   am
     4    20    21    2
     5     1    20    1
     6     1     2    1
     7     2     3   ar
     8     3     4   ar
     9     4     5   ar
    10     5     8    1
    11     8     9   ar
    12     9    10   ar
    13    10    11   ar
    14    11    12   ar
    15    12    13   ar
    16    13    14   ar
    17    14    15   ar
    18    15    16   ar
    19     5     6   ar
    20     6     7   ar
    21     1    22    1
    22    22    23    1
    23    22    26    1
    24    26    27    2
    25    26    28   am
    26    28    29    1
    27    29    30    1
    28    30    31    1
    29    31    32    1
    30    31    33    1
    31    31    34    1
    32     7     2   ar
    33    34    28    1
    34    16     8   ar
    35    15    11   ar
    36    23    24    1
    37    23    25    1
@<TRIPOS>MOLECULE
*****
 34 37 0 0 0
SMALL
GASTEIGER

@<TRIPOS>ATOM
      1 C         141.0822  139.4509  159.6692 C.3     1  UNL1        0.1219
      2 C         140.6665  139.4673  161.1103 C.ar    1  UNL1       -0.0121
      3 C         140.4137  140.7735  161.8032 C.ar    1  UNL1       -0.0038
      4 C         139.9981  140.7898  163.2444 C.ar    1  UNL1       -0.0003
      5 C         139.8352  139.5001  163.9926 C.ar    1  UNL1        0.0001
      6 C         140.0879  138.1939  163.2998 C.ar    1  UNL1       -0.0003
      7 C         140.5036  138.1775  161.8587 C.ar    1  UNL1       -0.0038
      8 C         139.4195  139.5165  165.4339 C.ar    1  UNL1        0.0046
      9 C         138.1943  138.7688  165.8696 C.ar    1  UNL1        0.0208
     10 C         137.7787  138.7852  167.3108 C.ar    1  UNL1        0.1021
     11 N         138.5882  139.5492  168.3162 N.ar    1  UNL1       -0.2092
     12 N         138.4259  139.7467  169.7943 N.ar    1  UNL1       -0.1409
     13 C         139.5508  140.6164  170.2720 C.ar    1  UNL1        0.2213
     14 N         140.4084  140.9564  169.0892 N.ar    1  UNL1       -0.2034
     15 C         139.8134  140.2969  167.8804 C.ar    1  UNL1        0.1656
     16 C         140.2291  140.2805  166.4392 C.ar    1  UNL1        0.0389
     17 C         138.4141  140.4699  156.9137 C.3     1  UNL1        0.1149
     18 N         139.4508  140.5805  157.9921 N.am    1  UNL1       -0.2757
     19 C         139.8930  141.9312  158.4718 C.3     1  UNL1        0.1149
     20 C         140.0454  139.3404  158.5908 C.2     1  UNL1        0.2312
     21 O         139.6033  137.9897  158.1111 O.2     1  UNL1       -0.2745
     22 C         142.5346  139.5450  159.3064 C.3     1  UNL1        0.1413
     23 N         143.2151  138.3915  158.6308 N.3     1  UNL1       -0.3144
     24 H         142.5460  137.6335  158.4961 H       1  UNL1        0.1193
     25 H         143.9870  138.0644  159.2118 H       1  UNL1        0.1193
     26 C         143.3065  140.7924  159.6193 C.2     1  UNL1        0.2406
     27 O         143.3619  141.9104  158.6209 O.2     1  UNL1       -0.2734
     28 N         144.0231  140.9219  160.9308 N.am    1  UNL1       -0.2730
     29 C         144.8307  142.1029  161.3813 C.3     1  UNL1        0.0993
     30 C         145.3646  141.8040  162.7509 C.3     1  UNL1        0.0898
     31 C         144.8870  140.4383  163.1467 C.3     1  UNL1        0.2835
     32 F         145.6496  140.7098  164.4095 F       1  UNL1       -0.2024
     33 F         144.5688  139.1294  163.8065 F       1  UNL1       -0.2024
     34 C         144.0579  139.8931  162.0218 C.3     1  UNL1        0.1601
@<TRIPOS>BOND
     1    17    18    1
     2    18    19    1
     3    18    20   am
     4    20    21    2
     5     1    20    1
     6     1     2    1
     7     2     3   ar
     8     3     4   ar
     9     4     5   ar
    10     5     8    1
    11     8     9   ar
    12     9    10   ar
    13    10    11   ar
    14    11    12   ar
    15    12    13   ar
    16    13    14   ar
    17    14    15   ar
    18    15    16   ar
    19     5     6   ar
    20     6     7   ar
    21     1    22    1
    22    22    23    1
    23    22    26    1
    24    26    27    2
    25    26    28   am
    26    28    29    1
    27    29    30    1
    28    30    31    1
    29    31    32    1
    30    31    33    1
    31    31    34    1
    32     7     2   ar
    33    34    28    1
    34    16     8   ar
    35    15    11   ar
    36    23    24    1
    37    23    25    1
@<TRIPOS>MOLECULE
*****
 34 37 0 0 0
SMALL
GASTEIGER

@<TRIPOS>ATOM
      1 C         143.3225  141.0761  160.9770 C.3     1  UNL1        0.1219
      2 C         142.7399  141.1224  162.3585 C.ar    1  UNL1       -0.0121
      3 C         141.7865  142.2178  162.7339 C.ar    1  UNL1       -0.0038
      4 C         141.2039  142.2642  164.1154 C.ar    1  UNL1       -0.0003
      5 C         141.5747  141.2152  165.1214 C.ar    1  UNL1        0.0001
      6 C         142.5282  140.1198  164.7459 C.ar    1  UNL1       -0.0003
      7 C         143.1108  140.0734  163.3645 C.ar    1  UNL1       -0.0038
      8 C         140.9921  141.2615  166.5029 C.ar    1  UNL1        0.0046
      9 C         140.4250  140.0175  167.1198 C.ar    1  UNL1        0.0208
     10 C         139.8424  140.0639  168.5013 C.ar    1  UNL1        0.1021
     11 N         139.8270  141.3543  169.2658 N.ar    1  UNL1       -0.2092
     12 N         139.3234  141.7039  170.6348 N.ar    1  UNL1       -0.1409
     13 C         139.5794  143.1640  170.8640 C.ar    1  UNL1        0.2213
     14 N         140.2412  143.7168  169.6366 N.ar    1  UNL1       -0.2034
     15 C         140.3942  142.5984  168.6489 C.ar    1  UNL1        0.1656
     16 C         140.9768  142.5520  167.2674 C.ar    1  UNL1        0.0389
     17 C         141.6300  138.4966  158.4807 C.3     1  UNL1        0.1149
     18 N         141.8385  139.7066  159.3423 N.am    1  UNL1       -0.2757
     19 C         140.7714  140.7571  159.4311 C.3     1  UNL1        0.1149
     20 C         143.1140  139.8661  160.1153 C.2     1  UNL1        0.2312
     21 O         144.1811  138.8156  160.0266 O.2     1  UNL1       -0.2745
     22 C         144.1137  142.2397  160.4573 C.3     1  UNL1        0.1413
     23 N         145.1091  142.9262  161.3450 N.3     1  UNL1       -0.3144
     24 H         145.1174  142.4745  162.2595 H       1  UNL1        0.1193
     25 H         144.8494  143.9067  161.4525 H       1  UNL1        0.1193
     26 C         143.9094  142.7167  159.0500 C.2     1  UNL1        0.2406
     27 O         144.7908  142.2053  157.9492 O.2     1  UNL1       -0.2734
     28 N         142.8237  143.7053  158.7433 N.am    1  UNL1       -0.2730
     29 C         142.5019  144.2703  157.3915 C.3     1  UNL1        0.0993
     30 C         141.3486  145.2167  157.5473 C.3     1  UNL1        0.0898
     31 C         140.9576  145.2365  158.9953 C.3     1  UNL1        0.2835
     32 F         139.9188  146.2176  158.5390 F       1  UNL1       -0.2024
     33 F         140.3495  145.4615  160.3479 F       1  UNL1       -0.2024
     34 C         141.8693  144.3025  159.7345 C.3     1  UNL1        0.1601
@<TRIPOS>BOND
     1    17    18    1
     2    18    19    1
     3    18    20   am
     4    20    21    2
     5     1    20    1
     6     1     2    1
     7     2     3   ar
     8     3     4   ar
     9     4     5   ar
    10     5     8    1
    11     8     9   ar
    12     9    10   ar
    13    10    11   ar
    14    11    12   ar
    15    12    13   ar
    16    13    14   ar
    17    14    15   ar
    18    15    16   ar
    19     5     6   ar
    20     6     7   ar
    21     1    22    1
    22    22    23    1
    23    22    26    1
    24    26    27    2
    25    26    28   am
    26    28    29    1
    27    29    30    1
    28    30    31    1
    29    31    32    1
    30    31    33    1
    31    31    34    1
    32     7     2   ar
    33    34    28    1
    34    16     8   ar
    35    15    11   ar
    36    23    24    1
    37    23    25    1
@<TRIPOS>MOLECULE
*****
 34 37 0 0 0
SMALL
GASTEIGER

@<TRIPOS>ATOM
      1 C         138.8477  142.2664  162.3368 C.3     1  UNL1        0.1219
      2 C         139.9708  142.1289  161.3520 C.ar    1  UNL1       -0.0121
      3 C         141.3587  141.8278  161.8347 C.ar    1  UNL1       -0.0038
      4 C         142.4818  141.6904  160.8498 C.ar    1  UNL1       -0.0003
      5 C         142.2170  141.8540  159.3826 C.ar    1  UNL1        0.0001
      6 C         140.8291  142.1551  158.9000 C.ar    1  UNL1       -0.0003
      7 C         139.7059  142.2926  159.8847 C.ar    1  UNL1       -0.0038
      8 C         143.3401  141.7165  158.3978 C.ar    1  UNL1        0.0046
      9 C         143.1910  140.8106  157.2117 C.ar    1  UNL1        0.0208
     10 C         144.3141  140.6731  156.2269 C.ar    1  UNL1        0.1021
     11 N         145.5863  141.4417  156.4283 N.ar    1  UNL1       -0.2092
     12 N         146.8555  141.5083  155.6316 N.ar    1  UNL1       -0.1409
     13 C         147.7891  142.4555  156.3253 C.ar    1  UNL1        0.2213
     14 N         147.0969  142.9743  157.5508 N.ar    1  UNL1       -0.2034
     15 C         145.7355  142.3477  157.6144 C.ar    1  UNL1        0.1656
     16 C         144.6124  142.4851  158.5991 C.ar    1  UNL1        0.0389
     17 C         138.8589  145.0260  165.1889 C.3     1  UNL1        0.1149
     18 N         139.0753  143.7247  164.4749 N.am    1  UNL1       -0.2757
     19 C         139.7357  142.5803  165.1851 C.3     1  UNL1        0.1149
     20 C         138.6313  143.5677  163.0508 C.2     1  UNL1        0.2312
     21 O         137.9709  144.7121  162.3406 O.2     1  UNL1       -0.2745
     22 C         137.9409  141.1026  162.6075 C.3     1  UNL1        0.1413
     23 N         136.6566  141.3103  163.3542 N.3     1  UNL1       -0.3144
     24 H         136.5615  142.2958  163.5994 H       1  UNL1        0.1193
     25 H         136.6630  140.7474  164.2048 H       1  UNL1        0.1193
     26 C         138.3184  139.7312  162.1316 C.2     1  UNL1        0.2406
     27 O         137.6831  139.1645  160.8965 O.2     1  UNL1       -0.2734
     28 N         139.3313  138.9262  162.8907 N.am    1  UNL1       -0.2730
     29 C         139.8062  137.5478  162.5377 C.3     1  UNL1        0.0993
     30 C         140.8154  137.1280  163.5649 C.3     1  UNL1        0.0898
     31 C         140.9643  138.2470  164.5527 C.3     1  UNL1        0.2835
     32 F         141.9560  137.3295  165.2044 F       1  UNL1       -0.2024
     33 F         141.3205  139.1741  165.6768 F       1  UNL1       -0.2024
     34 C         140.0470  139.3583  164.1361 C.3     1  UNL1        0.1601
@<TRIPOS>BOND
     1    17    18    1
     2    18    19    1
     3    18    20   am
     4    20    21    2
     5     1    20    1
     6     1     2    1
     7     2     3   ar
     8     3     4   ar
     9     4     5   ar
    10     5     8    1
    11     8     9   ar
    12     9    10   ar
    13    10    11   ar
    14    11    12   ar
    15    12    13   ar
    16    13    14   ar
    17    14    15   ar
    18    15    16   ar
    19     5     6   ar
    20     6     7   ar
    21     1    22    1
    22    22    23    1
    23    22    26    1
    24    26    27    2
    25    26    28   am
    26    28    29    1
    27    29    30    1
    28    30    31    1
    29    31    32    1
    30    31    33    1
    31    31    34    1
    32     7     2   ar
    33    34    28    1
    34    16     8   ar
    35    15    11   ar
    36    23    24    1
    37    23    25    1
@<TRIPOS>MOLECULE
*****
 34 37 0 0 0
SMALL
GASTEIGER

@<TRIPOS>ATOM
      1 C         142.4201  142.9361  161.2503 C.3     1  UNL1        0.1219
      2 C         142.3736  142.6506  162.7221 C.ar    1  UNL1       -0.0121
      3 C         143.1356  143.5190  163.6789 C.ar    1  UNL1       -0.0038
      4 C         143.0891  143.2334  165.1508 C.ar    1  UNL1       -0.0003
      5 C         142.2808  142.0797  165.6658 C.ar    1  UNL1        0.0001
      6 C         141.5189  141.2113  164.7090 C.ar    1  UNL1       -0.0003
      7 C         141.5653  141.4968  163.2372 C.ar    1  UNL1       -0.0038
      8 C         142.2343  141.7941  167.1377 C.ar    1  UNL1        0.0046
      9 C         143.3251  142.2997  168.0346 C.ar    1  UNL1        0.0208
     10 C         143.2786  142.0141  169.5065 C.ar    1  UNL1        0.1021
     11 N         142.1412  141.2230  170.0814 N.ar    1  UNL1       -0.2092
     12 N         141.8283  140.7880  171.4824 N.ar    1  UNL1       -0.1409
     13 C         140.5440  140.0136  171.4513 C.ar    1  UNL1        0.2213
     14 N         140.0632  139.9700  170.0311 N.ar    1  UNL1       -0.2034
     15 C         141.0504  140.7174  169.1844 C.ar    1  UNL1        0.1656
     16 C         141.0969  141.0030  167.7126 C.ar    1  UNL1        0.0389
     17 C         144.0754  140.3653  158.7204 C.3     1  UNL1        0.1149
     18 N         143.0560  141.0463  159.5847 N.am    1  UNL1       -0.2757
     19 C         141.6533  140.5188  159.6476 C.3     1  UNL1        0.1149
     20 C         143.4394  142.2550  160.3860 C.2     1  UNL1        0.2312
     21 O         144.8422  142.7825  160.3230 O.2     1  UNL1       -0.2745
     22 C         141.4472  143.9027  160.6428 C.3     1  UNL1        0.1413
     23 N         141.9478  145.1396  159.9573 N.3     1  UNL1       -0.3144
     24 H         142.9667  145.1621  159.9980 H       1  UNL1        0.1193
     25 H         141.5705  145.9638  160.4250 H       1  UNL1        0.1193
     26 C         139.9738  143.6326  160.7206 C.2     1  UNL1        0.2406
     27 O         139.2499  143.0734  159.5318 O.2     1  UNL1       -0.2734
     28 N         139.2242  143.9216  161.9874 N.am    1  UNL1       -0.2730
     29 C         137.7573  143.7041  162.2131 C.3     1  UNL1        0.0993
     30 C         137.4365  144.1269  163.6161 C.3     1  UNL1        0.0898
     31 C         138.7051  144.6056  164.2574 C.3     1  UNL1        0.2835
     32 F         137.8270  144.8430  165.4502 F       1  UNL1       -0.2024
     33 F         139.7901  145.1341  165.1482 F       1  UNL1       -0.2024
     34 C         139.8099  144.4788  163.2509 C.3     1  UNL1        0.1601
@<TRIPOS>BOND
     1    17    18    1
     2    18    19    1
     3    18    20   am
     4    20    21    2
     5     1    20    1
     6     1     2    1
     7     2     3   ar
     8     3     4   ar
     9     4     5   ar
    10     5     8    1
    11     8     9   ar
    12     9    10   ar
    13    10    11   ar
    14    11    12   ar
    15    12    13   ar
    16    13    14   ar
    17    14    15   ar
    18    15    16   ar
    19     5     6   ar
    20     6     7   ar
    21     1    22    1
    22    22    23    1
    23    22    26    1
    24    26    27    2
    25    26    28   am
    26    28    29    1
    27    29    30    1
    28    30    31    1
    29    31    32    1
    30    31    33    1
    31    31    34    1
    32     7     2   ar
    33    34    28    1
    34    16     8   ar
    35    15    11   ar
    36    23    24    1
    37    23    25    1
@<TRIPOS>MOLECULE
*****
 34 37 0 0 0
SMALL
GASTEIGER

@<TRIPOS>ATOM
      1 C         141.1309  141.7550  167.5764 C.3     1  UNL1        0.1219
      2 C         141.2419  142.2216  166.1552 C.ar    1  UNL1       -0.0121
      3 C         142.5913  142.3639  165.5158 C.ar    1  UNL1       -0.0038
      4 C         142.7023  142.8305  164.0945 C.ar    1  UNL1       -0.0003
      5 C         141.4640  143.1547  163.3127 C.ar    1  UNL1        0.0001
      6 C         140.1146  143.0124  163.9521 C.ar    1  UNL1       -0.0003
      7 C         140.0036  142.5459  165.3733 C.ar    1  UNL1       -0.0038
      8 C         141.5749  143.6213  161.8914 C.ar    1  UNL1        0.0046
      9 C         142.7069  143.1433  161.0312 C.ar    1  UNL1        0.0208
     10 C         142.8179  143.6099  159.6099 C.ar    1  UNL1        0.1021
     11 N         141.7967  144.5546  159.0489 N.ar    1  UNL1       -0.2092
     12 N         141.6468  145.1817  157.6946 N.ar    1  UNL1       -0.1409
     13 C         140.4220  146.0474  157.7178 C.ar    1  UNL1        0.2213
     14 N         139.8151  145.9553  159.0864 N.ar    1  UNL1       -0.2034
     15 C         140.6647  145.0326  159.9091 C.ar    1  UNL1        0.1656
     16 C         140.5538  144.5660  161.3303 C.ar    1  UNL1        0.0389
     17 C         142.4017  143.7968  170.7334 C.3     1  UNL1        0.1149
     18 N         142.3605  142.8015  169.6118 N.am    1  UNL1       -0.2757
     19 C         143.5076  141.8575  169.4042 C.3     1  UNL1        0.1149
     20 C         141.1722  142.7502  168.6979 C.2     1  UNL1        0.2312
     21 O         140.0252  143.6942  168.9056 O.2     1  UNL1       -0.2745
     22 C         140.9786  140.2932  167.8762 C.3     1  UNL1        0.1413
     23 N         140.0219  139.8414  168.9395 N.3     1  UNL1       -0.3144
     24 H         139.5638  140.6539  169.3522 H       1  UNL1        0.1193
     25 H         140.5322  139.3348  169.6630 H       1  UNL1        0.1193
     26 C         141.7829  139.2833  167.1126 C.2     1  UNL1        0.2406
     27 O         143.1611  138.9157  167.5769 O.2     1  UNL1       -0.2734
     28 N         141.2090  138.6407  165.8846 N.am    1  UNL1       -0.2730
     29 C         141.8911  137.6197  165.0231 C.3     1  UNL1        0.0993
     30 C         140.9560  137.2543  163.9086 C.3     1  UNL1        0.0898
     31 C         139.6960  138.0496  164.0814 C.3     1  UNL1        0.2835
     32 F         139.2570  137.3274  162.8421 F       1  UNL1       -0.2024
     33 F         138.3442  138.6938  163.9951 F       1  UNL1       -0.2024
     34 C         139.8523  138.9064  165.3026 C.3     1  UNL1        0.1601
@<TRIPOS>BOND
     1    17    18    1
     2    18    19    1
     3    18    20   am
     4    20    21    2
     5     1    20    1
     6     1     2    1
     7     2     3   ar
     8     3     4   ar
     9     4     5   ar
    10     5     8    1
    11     8     9   ar
    12     9    10   ar
    13    10    11   ar
    14    11    12   ar
    15    12    13   ar
    16    13    14   ar
    17    14    15   ar
    18    15    16   ar
    19     5     6   ar
    20     6     7   ar
    21     1    22    1
    22    22    23    1
    23    22    26    1
    24    26    27    2
    25    26    28   am
    26    28    29    1
    27    29    30    1
    28    30    31    1
    29    31    32    1
    30    31    33    1
    31    31    34    1
    32     7     2   ar
    33    34    28    1
    34    16     8   ar
    35    15    11   ar
    36    23    24    1
    37    23    25    1
@<TRIPOS>MOLECULE
*****
 34 37 0 0 0
SMALL
GASTEIGER

@<TRIPOS>ATOM
      1 C         142.7754  140.9595  160.2561 C.3     1  UNL1        0.1219
      2 C         142.0503  140.7032  161.5439 C.ar    1  UNL1       -0.0121
      3 C         142.7230  139.9363  162.6436 C.ar    1  UNL1       -0.0038
      4 C         141.9977  139.6800  163.9314 C.ar    1  UNL1       -0.0003
      5 C         140.6000  140.1906  164.1195 C.ar    1  UNL1        0.0001
      6 C         139.9273  140.9575  163.0198 C.ar    1  UNL1       -0.0003
      7 C         140.6525  141.2138  161.7320 C.ar    1  UNL1       -0.0038
      8 C         139.8748  139.9344  165.4073 C.ar    1  UNL1        0.0046
      9 C         138.7062  138.9945  165.4358 C.ar    1  UNL1        0.0208
     10 C         137.9809  138.7382  166.7237 C.ar    1  UNL1        0.1021
     11 N         138.4244  139.4219  167.9830 N.ar    1  UNL1       -0.2092
     12 N         137.9086  139.3662  169.3904 N.ar    1  UNL1       -0.1409
     13 C         138.7585  140.2716  170.2317 C.ar    1  UNL1        0.2213
     14 N         139.7995  140.8870  169.3443 N.ar    1  UNL1       -0.2034
     15 C         139.5931  140.3618  167.9544 C.ar    1  UNL1        0.1656
     16 C         140.3183  140.6181  166.6666 C.ar    1  UNL1        0.0389
     17 C         141.7757  139.0034  156.9509 C.3     1  UNL1        0.1149
     18 N         141.7873  140.0381  158.0369 N.am    1  UNL1       -0.2757
     19 C         140.8226  141.1857  157.9899 C.3     1  UNL1        0.1149
     20 C         142.7637  139.9250  159.1700 C.2     1  UNL1        0.2312
     21 O         143.7284  138.7773  159.2170 O.2     1  UNL1       -0.2745
     22 C         143.5123  142.2504  160.0543 C.3     1  UNL1        0.1413
     23 N         144.7011  142.3005  159.1409 N.3     1  UNL1       -0.3144
     24 H         144.8651  141.3748  158.7452 H       1  UNL1        0.1193
     25 H         145.5229  142.5952  159.6683 H       1  UNL1        0.1193
     26 C         143.0604  143.4910  160.7659 C.2     1  UNL1        0.2406
     27 O         142.1448  144.4593  160.0774 O.2     1  UNL1       -0.2734
     28 N         143.5241  143.7636  162.1663 N.am    1  UNL1       -0.2730
     29 C         143.1579  144.9555  163.0000 C.3     1  UNL1        0.0993
     30 C         143.8429  144.8205  164.3277 C.3     1  UNL1        0.0898
     31 C         144.6324  143.5452  164.3143 C.3     1  UNL1        0.2835
     32 F         145.0111  143.9495  165.7083 F       1  UNL1       -0.2024
     33 F         145.5011  142.3545  164.5925 F       1  UNL1       -0.2024
     34 C         144.4354  142.8920  162.9785 C.3     1  UNL1        0.1601
@<TRIPOS>BOND
     1    17    18    1
     2    18    19    1
     3    18    20   am
     4    20    21    2
     5     1    20    1
     6     1     2    1
     7     2     3   ar
     8     3     4   ar
     9     4     5   ar
    10     5     8    1
    11     8     9   ar
    12     9    10   ar
    13    10    11   ar
    14    11    12   ar
    15    12    13   ar
    16    13    14   ar
    17    14    15   ar
    18    15    16   ar
    19     5     6   ar
    20     6     7   ar
    21     1    22    1
    22    22    23    1
    23    22    26    1
    24    26    27    2
    25    26    28   am
    26    28    29    1
    27    29    30    1
    28    30    31    1
    29    31    32    1
    30    31    33    1
    31    31    34    1
    32     7     2   ar
    33    34    28    1
    34    16     8   ar
    35    15    11   ar
    36    23    24    1
    37    23    25    1
