@<TRIPOS>MOLECULE
*****
 34 37 0 0 0
SMALL
GASTEIGER

@<TRIPOS>ATOM
      1 N         143.6422  141.4902  158.8208 N.am    1  UNL1       -0.2438
      2 C         143.8289  140.2563  159.6531 C.3     1  UNL1        0.1009
      3 C         143.7521  140.3417  161.1487 C.3     1  UNL1        0.0662
      4 C         143.4885  141.6609  161.8120 C.3     1  UNL1        0.1602
      5 O         143.3018  142.8949  160.9798 O.3     1  UNL1       -0.4374
      6 C         143.3786  142.8095  159.4842 C.2     1  UNL1        0.4051
      7 O         143.1918  144.0434  158.6519 O.2     1  UNL1       -0.2262
      8 C         143.5968  140.7788  163.0204 C.ar    1  UNL1        0.0140
      9 C         144.9296  140.2226  163.4260 C.ar    1  UNL1        0.0014
     10 C         145.0378  139.3405  164.6344 C.ar    1  UNL1        0.0294
     11 C         143.8134  139.0146  165.4371 C.ar    1  UNL1        0.1401
     12 F         143.9216  138.1325  166.6455 F       1  UNL1       -0.2042
     13 C         142.4806  139.5708  165.0316 C.ar    1  UNL1        0.0294
     14 C         142.3723  140.4529  163.8232 C.ar    1  UNL1        0.0014
     15 C         142.4861  141.1003  156.5271 C.3     1  UNL1        0.0265
     16 C         143.7190  141.4048  157.3252 C.3     1  UNL1        0.1011
     17 C         145.0289  141.6239  156.6278 C.ar    1  UNL1       -0.0042
     18 C         145.2557  141.0502  155.2606 C.ar    1  UNL1       -0.0027
     19 C         146.5655  141.2693  154.5632 C.ar    1  UNL1       -0.0002
     20 C         147.6485  142.0622  155.2331 C.ar    1  UNL1        0.0021
     21 C         147.4216  142.6359  156.6003 C.ar    1  UNL1       -0.0002
     22 C         146.1118  142.4167  157.2977 C.ar    1  UNL1       -0.0027
     23 C         148.9583  142.2813  154.5356 C.ar    1  UNL1        0.0276
     24 C         150.1610  141.4754  154.9281 C.ar    1  UNL1        0.0045
     25 C         151.4708  141.6945  154.2307 C.ar    1  UNL1        0.0298
     26 C         151.5779  142.7196  153.1408 C.ar    1  UNL1        0.1424
     27 F         152.8877  142.9387  152.4434 F       1  UNL1       -0.2041
     28 C         150.3752  143.5255  152.7483 C.ar    1  UNL1        0.0592
     29 C         149.0654  143.3063  153.4458 C.ar    1  UNL1        0.1423
     30 F         147.8626  144.1122  153.0533 F       1  UNL1       -0.2041
     31 C         143.2626  142.6739  162.8951 C.3     1  UNL1        0.0762
     32 C         144.1625  143.8689  163.0039 C.3     1  UNL1        0.1411
     33 O         143.6697  145.2201  162.5778 O.3     1  UNL1       -0.3819
     34 H         143.5145  145.2205  161.6203 H       1  UNL1        0.2104
@<TRIPOS>BOND
     1    16    15    1
     2    16    17    1
     3    17    18   ar
     4    18    19   ar
     5    19    20   ar
     6    20    23    1
     7    23    24   ar
     8    24    25   ar
     9    25    26   ar
    10    26    27    1
    11    26    28   ar
    12    28    29   ar
    13    29    30    1
    14    20    21   ar
    15    21    22   ar
    16    16     1    1
    17     1     2    1
    18     2     3    1
    19     3     4    1
    20     4    31    1
    21    31    32    1
    22    32    33    1
    23     4     8    1
    24     8     9   ar
    25     9    10   ar
    26    10    11   ar
    27    11    12    1
    28    11    13   ar
    29    13    14   ar
    30     4     5    1
    31     5     6    1
    32     6     7    2
    33    22    17   ar
    34     6     1   am
    35    29    23   ar
    36    14     8   ar
    37    33    34    1
@<TRIPOS>MOLECULE
*****
 34 37 0 0 0
SMALL
GASTEIGER

@<TRIPOS>ATOM
      1 N         141.1653  143.6468  162.6485 N.am    1  UNL1       -0.2438
      2 C         140.5903  143.1154  163.9279 C.3     1  UNL1        0.1009
      3 C         141.4808  142.4345  164.9246 C.3     1  UNL1        0.0662
      4 C         142.9463  142.2851  164.6419 C.3     1  UNL1        0.1602
      5 O         143.5214  142.8165  163.3624 O.3     1  UNL1       -0.4374
      6 C         142.6308  143.4974  162.3657 C.2     1  UNL1        0.4051
      7 O         143.2058  144.0288  161.0863 O.2     1  UNL1       -0.2262
      8 C         142.8712  141.6217  165.9852 C.ar    1  UNL1        0.0140
      9 C         143.1065  142.4227  167.2314 C.ar    1  UNL1        0.0014
     10 C         143.0314  141.7594  168.5747 C.ar    1  UNL1        0.0294
     11 C         142.7211  140.2951  168.6716 C.ar    1  UNL1        0.1401
     12 F         142.6460  139.6317  170.0149 F       1  UNL1       -0.2042
     13 C         142.4858  139.4940  167.4254 C.ar    1  UNL1        0.0294
     14 C         142.5609  140.1574  166.0821 C.ar    1  UNL1        0.0014
     15 C         139.9541  145.7850  161.8051 C.3     1  UNL1        0.0265
     16 C         140.2748  144.3277  161.6518 C.3     1  UNL1        0.1011
     17 C         139.7049  143.5513  160.5018 C.ar    1  UNL1       -0.0042
     18 C         139.8972  144.0415  159.0973 C.ar    1  UNL1       -0.0027
     19 C         139.3274  143.2650  157.9474 C.ar    1  UNL1       -0.0002
     20 C         138.5652  141.9984  158.2019 C.ar    1  UNL1        0.0021
     21 C         138.3729  141.5082  159.6065 C.ar    1  UNL1       -0.0002
     22 C         138.9428  142.2847  160.7564 C.ar    1  UNL1       -0.0027
     23 C         137.9954  141.2219  157.0519 C.ar    1  UNL1        0.0276
     24 C         136.5842  141.4678  156.6069 C.ar    1  UNL1        0.0045
     25 C         136.0144  140.6913  155.4569 C.ar    1  UNL1        0.0298
     26 C         136.8558  139.6691  154.7519 C.ar    1  UNL1        0.1424
     27 F         136.2860  138.8926  153.6020 F       1  UNL1       -0.2041
     28 C         138.2670  139.4232  155.1970 C.ar    1  UNL1        0.0592
     29 C         138.8368  140.1997  156.3470 C.ar    1  UNL1        0.1423
     30 F         140.2481  139.9538  156.7920 F       1  UNL1       -0.2041
     31 C         144.3858  141.9052  164.8256 C.3     1  UNL1        0.0762
     32 C         145.1296  141.2250  163.7149 C.3     1  UNL1        0.1411
     33 O         146.3621  141.8578  163.1398 O.3     1  UNL1       -0.3819
     34 H         146.1223  142.6844  162.6923 H       1  UNL1        0.2104
@<TRIPOS>BOND
     1    16    15    1
     2    16    17    1
     3    17    18   ar
     4    18    19   ar
     5    19    20   ar
     6    20    23    1
     7    23    24   ar
     8    24    25   ar
     9    25    26   ar
    10    26    27    1
    11    26    28   ar
    12    28    29   ar
    13    29    30    1
    14    20    21   ar
    15    21    22   ar
    16    16     1    1
    17     1     2    1
    18     2     3    1
    19     3     4    1
    20     4    31    1
    21    31    32    1
    22    32    33    1
    23     4     8    1
    24     8     9   ar
    25     9    10   ar
    26    10    11   ar
    27    11    12    1
    28    11    13   ar
    29    13    14   ar
    30     4     5    1
    31     5     6    1
    32     6     7    2
    33    22    17   ar
    34     6     1   am
    35    29    23   ar
    36    14     8   ar
    37    33    34    1
@<TRIPOS>MOLECULE
*****
 34 37 0 0 0
SMALL
GASTEIGER

@<TRIPOS>ATOM
      1 N         139.6668  139.6180  163.6788 N.am    1  UNL1       -0.2438
      2 C         138.9688  140.5829  164.5907 C.3     1  UNL1        0.1009
      3 C         139.4750  140.7956  165.9866 C.3     1  UNL1        0.0662
      4 C         140.6791  140.0435  166.4706 C.3     1  UNL1        0.1602
      5 O         141.3772  139.0785  165.5586 O.3     1  UNL1       -0.4374
      6 C         140.8710  138.8658  164.1627 C.2     1  UNL1        0.4051
      7 O         141.5690  137.9008  163.2507 O.2     1  UNL1       -0.2262
      8 C         140.3609  140.8437  167.6988 C.ar    1  UNL1        0.0140
      9 C         139.5494  140.2329  168.8025 C.ar    1  UNL1        0.0014
     10 C         139.2312  141.0331  170.0307 C.ar    1  UNL1        0.0294
     11 C         139.7246  142.4442  170.1550 C.ar    1  UNL1        0.1401
     12 F         139.4064  143.2444  171.3832 F       1  UNL1       -0.2042
     13 C         140.5361  143.0550  169.0513 C.ar    1  UNL1        0.0294
     14 C         140.8543  142.2548  167.8231 C.ar    1  UNL1        0.0014
     15 C         138.4442  138.1355  161.9302 C.3     1  UNL1        0.0265
     16 C         139.1607  139.4052  162.2828 C.3     1  UNL1        0.1011
     17 C         139.3710  140.4623  161.2395 C.ar    1  UNL1       -0.0042
     18 C         140.6340  140.4768  160.4305 C.ar    1  UNL1       -0.0027
     19 C         140.8443  141.5338  159.3873 C.ar    1  UNL1       -0.0002
     20 C         139.7916  142.5764  159.1530 C.ar    1  UNL1        0.0021
     21 C         138.5286  142.5619  159.9620 C.ar    1  UNL1       -0.0002
     22 C         138.3183  141.5048  161.0053 C.ar    1  UNL1       -0.0027
     23 C         140.0020  143.6334  158.1097 C.ar    1  UNL1        0.0276
     24 C         139.9455  143.2730  156.6548 C.ar    1  UNL1        0.0045
     25 C         140.1559  144.3301  155.6115 C.ar    1  UNL1        0.0298
     26 C         140.4227  145.7476  156.0232 C.ar    1  UNL1        0.1424
     27 F         140.6330  146.8046  154.9800 F       1  UNL1       -0.2041
     28 C         140.4791  146.1080  157.4782 C.ar    1  UNL1        0.0592
     29 C         140.2688  145.0509  158.5214 C.ar    1  UNL1        0.1423
     30 F         140.3252  145.4114  159.9764 F       1  UNL1       -0.2041
     31 C         141.7728  139.5692  167.3811 C.3     1  UNL1        0.0762
     32 C         143.1609  139.3735  166.8474 C.3     1  UNL1        0.1411
     33 O         143.8368  138.0415  166.9858 O.3     1  UNL1       -0.3819
     34 H         143.9961  137.8558  167.9244 H       1  UNL1        0.2104
@<TRIPOS>BOND
     1    16    15    1
     2    16    17    1
     3    17    18   ar
     4    18    19   ar
     5    19    20   ar
     6    20    23    1
     7    23    24   ar
     8    24    25   ar
     9    25    26   ar
    10    26    27    1
    11    26    28   ar
    12    28    29   ar
    13    29    30    1
    14    20    21   ar
    15    21    22   ar
    16    16     1    1
    17     1     2    1
    18     2     3    1
    19     3     4    1
    20     4    31    1
    21    31    32    1
    22    32    33    1
    23     4     8    1
    24     8     9   ar
    25     9    10   ar
    26    10    11   ar
    27    11    12    1
    28    11    13   ar
    29    13    14   ar
    30     4     5    1
    31     5     6    1
    32     6     7    2
    33    22    17   ar
    34     6     1   am
    35    29    23   ar
    36    14     8   ar
    37    33    34    1
@<TRIPOS>MOLECULE
*****
 34 37 0 0 0
SMALL
GASTEIGER

@<TRIPOS>ATOM
      1 N         139.2174  142.5054  163.8686 N.am    1  UNL1       -0.2438
      2 C         140.3804  142.5537  164.8147 C.3     1  UNL1        0.1009
      3 C         140.4761  141.5628  165.9367 C.3     1  UNL1        0.0662
      4 C         139.4089  140.5235  166.1126 C.3     1  UNL1        0.1602
      5 O         138.2459  140.4752  165.1664 O.3     1  UNL1       -0.4374
      6 C         138.1502  141.4661  164.0444 C.2     1  UNL1        0.4051
      7 O         136.9872  141.4178  163.0982 O.2     1  UNL1       -0.2262
      8 C         140.3098  140.1681  167.2580 C.ar    1  UNL1        0.0140
      9 C         139.7968  140.2389  168.6657 C.ar    1  UNL1        0.0014
     10 C         140.6978  139.8834  169.8111 C.ar    1  UNL1        0.0294
     11 C         142.1117  139.4571  169.5487 C.ar    1  UNL1        0.1401
     12 F         143.0127  139.1016  170.6941 F       1  UNL1       -0.2042
     13 C         142.6248  139.3862  168.1410 C.ar    1  UNL1        0.0294
     14 C         141.7238  139.7417  166.9955 C.ar    1  UNL1        0.0014
     15 C         138.1307  144.6199  162.8207 C.3     1  UNL1        0.0265
     16 C         139.1217  143.4963  162.7466 C.3     1  UNL1        0.1011
     17 C         140.0171  143.3637  161.5504 C.ar    1  UNL1       -0.0042
     18 C         140.6943  144.5756  160.9823 C.ar    1  UNL1       -0.0027
     19 C         141.5896  144.4429  159.7862 C.ar    1  UNL1       -0.0002
     20 C         141.8077  143.0983  159.1581 C.ar    1  UNL1        0.0021
     21 C         141.1306  141.8864  159.7261 C.ar    1  UNL1       -0.0002
     22 C         140.2353  142.0191  160.9223 C.ar    1  UNL1       -0.0027
     23 C         142.7031  142.9657  157.9619 C.ar    1  UNL1        0.0276
     24 C         142.2323  143.4342  156.6170 C.ar    1  UNL1        0.0045
     25 C         143.1277  143.3015  155.4209 C.ar    1  UNL1        0.0298
     26 C         144.4938  142.7004  155.5696 C.ar    1  UNL1        0.1424
     27 F         145.3892  142.5677  154.3736 F       1  UNL1       -0.2041
     28 C         144.9646  142.2318  156.9146 C.ar    1  UNL1        0.0592
     29 C         144.0693  142.3645  158.1107 C.ar    1  UNL1        0.1423
     30 F         144.5401  141.8959  159.4557 F       1  UNL1       -0.2041
     31 C         138.6545  139.3608  166.6862 C.3     1  UNL1        0.0762
     32 C         138.4087  138.1401  165.8499 C.3     1  UNL1        0.1411
     33 O         139.3478  137.7951  164.7323 O.3     1  UNL1       -0.3819
     34 H         139.2955  138.4766  164.0440 H       1  UNL1        0.2104
@<TRIPOS>BOND
     1    16    15    1
     2    16    17    1
     3    17    18   ar
     4    18    19   ar
     5    19    20   ar
     6    20    23    1
     7    23    24   ar
     8    24    25   ar
     9    25    26   ar
    10    26    27    1
    11    26    28   ar
    12    28    29   ar
    13    29    30    1
    14    20    21   ar
    15    21    22   ar
    16    16     1    1
    17     1     2    1
    18     2     3    1
    19     3     4    1
    20     4    31    1
    21    31    32    1
    22    32    33    1
    23     4     8    1
    24     8     9   ar
    25     9    10   ar
    26    10    11   ar
    27    11    12    1
    28    11    13   ar
    29    13    14   ar
    30     4     5    1
    31     5     6    1
    32     6     7    2
    33    22    17   ar
    34     6     1   am
    35    29    23   ar
    36    14     8   ar
    37    33    34    1
@<TRIPOS>MOLECULE
*****
 34 37 0 0 0
SMALL
GASTEIGER

@<TRIPOS>ATOM
      1 N         141.5208  138.9531  159.1048 N.am    1  UNL1       -0.2438
      2 C         140.2263  138.7383  159.8313 C.3     1  UNL1        0.1009
      3 C         140.1750  138.8628  161.3252 C.3     1  UNL1        0.0662
      4 C         141.4183  139.2022  162.0927 C.3     1  UNL1        0.1602
      5 O         142.7130  139.4171  161.3661 O.3     1  UNL1       -0.4374
      6 C         142.7642  139.2926  159.8722 C.2     1  UNL1        0.4051
      7 O         144.0588  139.5075  159.1456 O.2     1  UNL1       -0.2262
      8 C         140.4372  139.0919  163.2219 C.ar    1  UNL1        0.0140
      9 C         139.9284  140.3309  163.8971 C.ar    1  UNL1        0.0014
     10 C         138.9473  140.2206  165.0264 C.ar    1  UNL1        0.0294
     11 C         138.4750  138.8712  165.4804 C.ar    1  UNL1        0.1401
     12 F         137.4939  138.7609  166.6097 F       1  UNL1       -0.2042
     13 C         138.9838  137.6322  164.8052 C.ar    1  UNL1        0.0294
     14 C         139.9649  137.7425  163.6759 C.ar    1  UNL1        0.0014
     15 C         141.4769  140.0549  156.7523 C.3     1  UNL1        0.0265
     16 C         141.5721  138.8286  157.6108 C.3     1  UNL1        0.1011
     17 C         141.7185  137.4777  156.9754 C.ar    1  UNL1       -0.0042
     18 C         142.8920  136.6096  157.3209 C.ar    1  UNL1       -0.0027
     19 C         143.0384  135.2588  156.6855 C.ar    1  UNL1       -0.0002
     20 C         142.0113  134.7761  155.7046 C.ar    1  UNL1        0.0021
     21 C         140.8379  135.6442  155.3591 C.ar    1  UNL1       -0.0002
     22 C         140.6915  136.9950  155.9945 C.ar    1  UNL1       -0.0027
     23 C         142.1578  133.4252  155.0692 C.ar    1  UNL1        0.0276
     24 C         142.2256  132.1964  155.9267 C.ar    1  UNL1        0.0045
     25 C         142.3720  130.8454  155.2913 C.ar    1  UNL1        0.0298
     26 C         142.4507  130.7234  153.7983 C.ar    1  UNL1        0.1424
     27 F         142.5971  129.3726  153.1629 F       1  UNL1       -0.2041
     28 C         142.3828  131.9523  152.9408 C.ar    1  UNL1        0.0592
     29 C         142.2364  133.3031  153.5762 C.ar    1  UNL1        0.1423
     30 F         142.1686  134.5320  152.7187 F       1  UNL1       -0.2041
     31 C         142.3209  139.5033  163.2523 C.3     1  UNL1        0.0762
     32 C         143.6127  138.7575  163.4107 C.3     1  UNL1        0.1411
     33 O         144.9184  139.4681  163.2104 O.3     1  UNL1       -0.3819
     34 H         145.0001  139.7389  162.2825 H       1  UNL1        0.2104
@<TRIPOS>BOND
     1    16    15    1
     2    16    17    1
     3    17    18   ar
     4    18    19   ar
     5    19    20   ar
     6    20    23    1
     7    23    24   ar
     8    24    25   ar
     9    25    26   ar
    10    26    27    1
    11    26    28   ar
    12    28    29   ar
    13    29    30    1
    14    20    21   ar
    15    21    22   ar
    16    16     1    1
    17     1     2    1
    18     2     3    1
    19     3     4    1
    20     4    31    1
    21    31    32    1
    22    32    33    1
    23     4     8    1
    24     8     9   ar
    25     9    10   ar
    26    10    11   ar
    27    11    12    1
    28    11    13   ar
    29    13    14   ar
    30     4     5    1
    31     5     6    1
    32     6     7    2
    33    22    17   ar
    34     6     1   am
    35    29    23   ar
    36    14     8   ar
    37    33    34    1
@<TRIPOS>MOLECULE
*****
 34 37 0 0 0
SMALL
GASTEIGER

@<TRIPOS>ATOM
      1 N         142.7696  142.0515  163.2638 N.am    1  UNL1       -0.2438
      2 C         142.4108  142.5001  164.6494 C.3     1  UNL1        0.1009
      3 C         142.0151  141.4905  165.6858 C.3     1  UNL1        0.0662
      4 C         141.9782  140.0322  165.3366 C.3     1  UNL1        0.1602
      5 O         142.3370  139.5835  163.9510 O.3     1  UNL1       -0.4374
      6 C         142.7327  140.5931  162.9146 C.2     1  UNL1        0.4051
      7 O         143.0915  140.1444  161.5290 O.2     1  UNL1       -0.2262
      8 C         141.5556  139.9666  166.7744 C.ar    1  UNL1        0.0140
      9 C         142.5415  139.5565  167.8279 C.ar    1  UNL1        0.0014
     10 C         142.1190  139.4908  169.2657 C.ar    1  UNL1        0.0294
     11 C         140.7105  139.8352  169.6498 C.ar    1  UNL1        0.1401
     12 F         140.2879  139.7695  171.0876 F       1  UNL1       -0.2042
     13 C         139.7246  140.2452  168.5964 C.ar    1  UNL1        0.0294
     14 C         140.1471  140.3109  167.1586 C.ar    1  UNL1        0.0014
     15 C         144.4583  143.8089  162.3641 C.3     1  UNL1        0.0265
     16 C         143.1652  143.0611  162.2274 C.3     1  UNL1        0.1011
     17 C         142.2678  143.3228  161.0543 C.ar    1  UNL1       -0.0042
     18 C         142.8056  143.2099  159.6586 C.ar    1  UNL1       -0.0027
     19 C         141.9082  143.4717  158.4856 C.ar    1  UNL1       -0.0002
     20 C         140.4729  143.8464  158.7083 C.ar    1  UNL1        0.0021
     21 C         139.9350  143.9593  160.1039 C.ar    1  UNL1       -0.0002
     22 C         140.8325  143.6975  161.2769 C.ar    1  UNL1       -0.0027
     23 C         139.5754  144.1081  157.5351 C.ar    1  UNL1        0.0276
     24 C         138.5387  143.0972  157.1437 C.ar    1  UNL1        0.0045
     25 C         137.6413  143.3590  155.9705 C.ar    1  UNL1        0.0298
     26 C         137.7806  144.6317  155.1890 C.ar    1  UNL1        0.1424
     27 F         136.8832  144.8935  154.0159 F       1  UNL1       -0.2041
     28 C         138.8173  145.6426  155.5805 C.ar    1  UNL1        0.0592
     29 C         139.7147  145.3808  156.7536 C.ar    1  UNL1        0.1423
     30 F         140.7515  146.3917  157.1451 F       1  UNL1       -0.2041
     31 C         141.7946  138.5511  165.4867 C.3     1  UNL1        0.0762
     32 C         140.8677  137.8132  164.5668 C.3     1  UNL1        0.1411
     33 O         141.4219  136.8571  163.5524 O.3     1  UNL1       -0.3819
     34 H         141.9442  137.3469  162.8980 H       1  UNL1        0.2104
@<TRIPOS>BOND
     1    16    15    1
     2    16    17    1
     3    17    18   ar
     4    18    19   ar
     5    19    20   ar
     6    20    23    1
     7    23    24   ar
     8    24    25   ar
     9    25    26   ar
    10    26    27    1
    11    26    28   ar
    12    28    29   ar
    13    29    30    1
    14    20    21   ar
    15    21    22   ar
    16    16     1    1
    17     1     2    1
    18     2     3    1
    19     3     4    1
    20     4    31    1
    21    31    32    1
    22    32    33    1
    23     4     8    1
    24     8     9   ar
    25     9    10   ar
    26    10    11   ar
    27    11    12    1
    28    11    13   ar
    29    13    14   ar
    30     4     5    1
    31     5     6    1
    32     6     7    2
    33    22    17   ar
    34     6     1   am
    35    29    23   ar
    36    14     8   ar
    37    33    34    1
@<TRIPOS>MOLECULE
*****
 34 37 0 0 0
SMALL
GASTEIGER

@<TRIPOS>ATOM
      1 N         141.8769  141.6873  161.8407 N.am    1  UNL1       -0.2438
      2 C         142.3363  141.2332  163.1944 C.3     1  UNL1        0.1009
      3 C         141.3935  141.2774  164.3602 C.3     1  UNL1        0.0662
      4 C         139.9913  141.7756  164.1723 C.3     1  UNL1        0.1602
      5 O         139.5318  142.2298  162.8185 O.3     1  UNL1       -0.4374
      6 C         140.4746  142.1856  161.6527 C.2     1  UNL1        0.4051
      7 O         140.0151  142.6397  160.2990 O.2     1  UNL1       -0.2262
      8 C         139.9599  141.4560  165.6376 C.ar    1  UNL1        0.0140
      9 C         139.3460  140.1724  166.1122 C.ar    1  UNL1        0.0014
     10 C         139.3146  139.8528  167.5775 C.ar    1  UNL1        0.0294
     11 C         139.8973  140.8168  168.5680 C.ar    1  UNL1        0.1401
     12 F         139.8659  140.4972  170.0332 F       1  UNL1       -0.2042
     13 C         140.5113  142.1005  168.0933 C.ar    1  UNL1        0.0294
     14 C         140.5426  142.4201  166.6281 C.ar    1  UNL1        0.0014
     15 C         143.8503  142.7193  160.5025 C.3     1  UNL1        0.0265
     16 C         142.8197  141.6431  160.6749 C.3     1  UNL1        0.1011
     17 C         142.7319  140.5227  159.6813 C.ar    1  UNL1       -0.0042
     18 C         143.0193  140.7812  158.2320 C.ar    1  UNL1       -0.0027
     19 C         142.9315  139.6608  157.2386 C.ar    1  UNL1       -0.0002
     20 C         142.5563  138.2819  157.6944 C.ar    1  UNL1        0.0021
     21 C         142.2688  138.0234  159.1437 C.ar    1  UNL1       -0.0002
     22 C         142.3567  139.1438  160.1372 C.ar    1  UNL1       -0.0027
     23 C         142.4684  137.1615  156.7009 C.ar    1  UNL1        0.0276
     24 C         143.7208  136.5694  156.1255 C.ar    1  UNL1        0.0045
     25 C         143.6329  135.4490  155.1320 C.ar    1  UNL1        0.0298
     26 C         142.2928  134.9207  154.7139 C.ar    1  UNL1        0.1424
     27 F         142.2049  133.8004  153.7204 F       1  UNL1       -0.2041
     28 C         141.0404  135.5129  155.2893 C.ar    1  UNL1        0.0592
     29 C         141.1283  136.6332  156.2828 C.ar    1  UNL1        0.1423
     30 F         139.8759  137.2254  156.8582 F       1  UNL1       -0.2041
     31 C         138.5781  142.1630  164.4933 C.3     1  UNL1        0.0762
     32 C         137.5845  142.3592  163.3869 C.3     1  UNL1        0.1411
     33 O         136.5880  141.2826  163.0739 O.3     1  UNL1       -0.3819
     34 H         137.0524  140.4999  162.7381 H       1  UNL1        0.2104
@<TRIPOS>BOND
     1    16    15    1
     2    16    17    1
     3    17    18   ar
     4    18    19   ar
     5    19    20   ar
     6    20    23    1
     7    23    24   ar
     8    24    25   ar
     9    25    26   ar
    10    26    27    1
    11    26    28   ar
    12    28    29   ar
    13    29    30    1
    14    20    21   ar
    15    21    22   ar
    16    16     1    1
    17     1     2    1
    18     2     3    1
    19     3     4    1
    20     4    31    1
    21    31    32    1
    22    32    33    1
    23     4     8    1
    24     8     9   ar
    25     9    10   ar
    26    10    11   ar
    27    11    12    1
    28    11    13   ar
    29    13    14   ar
    30     4     5    1
    31     5     6    1
    32     6     7    2
    33    22    17   ar
    34     6     1   am
    35    29    23   ar
    36    14     8   ar
    37    33    34    1
@<TRIPOS>MOLECULE
*****
 34 37 0 0 0
SMALL
GASTEIGER

@<TRIPOS>ATOM
      1 N         142.3972  142.4651  163.5856 N.am    1  UNL1       -0.2438
      2 C         140.9762  142.3232  164.0444 C.3     1  UNL1        0.1009
      3 C         140.5417  141.0826  164.7671 C.3     1  UNL1        0.0662
      4 C         141.5282  139.9840  165.0309 C.3     1  UNL1        0.1602
      5 O         142.9493  140.1258  164.5721 O.3     1  UNL1       -0.4374
      6 C         143.3838  141.3664  163.8494 C.2     1  UNL1        0.4051
      7 O         144.8048  141.5083  163.3906 O.2     1  UNL1       -0.2262
      8 C         140.3019  139.3887  165.6569 C.ar    1  UNL1        0.0140
      9 C         139.7277  139.9930  166.9039 C.ar    1  UNL1        0.0014
     10 C         138.5013  139.3978  167.5298 C.ar    1  UNL1        0.0294
     11 C         137.8493  138.1982  166.9087 C.ar    1  UNL1        0.1401
     12 F         136.6229  137.6029  167.5346 F       1  UNL1       -0.2042
     13 C         138.4234  137.5939  165.6617 C.ar    1  UNL1        0.0294
     14 C         139.6498  138.1891  165.0357 C.ar    1  UNL1        0.0014
     15 C         143.6382  144.7476  163.5798 C.3     1  UNL1        0.0265
     16 C         142.8317  143.7057  162.8630 C.3     1  UNL1        0.1011
     17 C         142.4596  143.9043  161.4234 C.ar    1  UNL1       -0.0042
     18 C         141.3661  144.8632  161.0568 C.ar    1  UNL1       -0.0027
     19 C         140.9941  145.0618  159.6173 C.ar    1  UNL1       -0.0002
     20 C         141.7157  144.3013  158.5445 C.ar    1  UNL1        0.0021
     21 C         142.8092  143.3424  158.9110 C.ar    1  UNL1       -0.0002
     22 C         143.1812  143.1438  160.3505 C.ar    1  UNL1       -0.0027
     23 C         141.3436  144.4999  157.1049 C.ar    1  UNL1        0.0276
     24 C         142.3042  145.1697  156.1675 C.ar    1  UNL1        0.0045
     25 C         141.9321  145.3682  154.7280 C.ar    1  UNL1        0.0298
     26 C         140.5995  144.8971  154.2259 C.ar    1  UNL1        0.1424
     27 F         140.2274  145.0956  152.7864 F       1  UNL1       -0.2041
     28 C         139.6389  144.2273  155.1634 C.ar    1  UNL1        0.0592
     29 C         140.0110  144.0288  156.6028 C.ar    1  UNL1        0.1423
     30 F         139.0504  143.3590  157.5403 F       1  UNL1       -0.2041
     31 C         142.0889  138.6785  165.5121 C.3     1  UNL1        0.0762
     32 C         143.3447  138.6584  166.3322 C.3     1  UNL1        0.1411
     33 O         143.2631  138.6877  167.8297 O.3     1  UNL1       -0.3819
     34 H         142.8954  139.5381  168.1169 H       1  UNL1        0.2104
@<TRIPOS>BOND
     1    16    15    1
     2    16    17    1
     3    17    18   ar
     4    18    19   ar
     5    19    20   ar
     6    20    23    1
     7    23    24   ar
     8    24    25   ar
     9    25    26   ar
    10    26    27    1
    11    26    28   ar
    12    28    29   ar
    13    29    30    1
    14    20    21   ar
    15    21    22   ar
    16    16     1    1
    17     1     2    1
    18     2     3    1
    19     3     4    1
    20     4    31    1
    21    31    32    1
    22    32    33    1
    23     4     8    1
    24     8     9   ar
    25     9    10   ar
    26    10    11   ar
    27    11    12    1
    28    11    13   ar
    29    13    14   ar
    30     4     5    1
    31     5     6    1
    32     6     7    2
    33    22    17   ar
    34     6     1   am
    35    29    23   ar
    36    14     8   ar
    37    33    34    1
@<TRIPOS>MOLECULE
*****
 34 37 0 0 0
SMALL
GASTEIGER

@<TRIPOS>ATOM
      1 N         140.2659  139.6483  162.9413 N.am    1  UNL1       -0.2438
      2 C         141.0561  140.5225  163.8694 C.3     1  UNL1        0.1009
      3 C         140.6421  140.6599  165.3046 C.3     1  UNL1        0.0662
      4 C         139.4380  139.9232  165.8117 C.3     1  UNL1        0.1602
      5 O         138.6477  139.0489  164.8836 O.3     1  UNL1       -0.4374
      6 C         139.0617  138.9115  163.4484 C.2     1  UNL1        0.4051
      7 O         138.2715  138.0373  162.5203 O.2     1  UNL1       -0.2262
      8 C         139.8610  140.6263  167.0674 C.ar    1  UNL1        0.0140
      9 C         140.1267  142.1024  167.0472 C.ar    1  UNL1        0.0014
     10 C         140.5498  142.8056  168.3028 C.ar    1  UNL1        0.0294
     11 C         140.7071  142.0325  169.5786 C.ar    1  UNL1        0.1401
     12 F         141.1301  142.7357  170.8343 F       1  UNL1       -0.2042
     13 C         140.4414  140.5564  169.5988 C.ar    1  UNL1        0.0294
     14 C         140.0184  139.8532  168.3431 C.ar    1  UNL1        0.0014
     15 C         141.3539  138.2557  161.0368 C.3     1  UNL1        0.0265
     16 C         140.6799  139.5108  161.5061 C.3     1  UNL1        0.1011
     17 C         140.4198  140.6287  160.5402 C.ar    1  UNL1       -0.0042
     18 C         139.0900  141.3225  160.5365 C.ar    1  UNL1       -0.0027
     19 C         138.8299  142.4403  159.5706 C.ar    1  UNL1       -0.0002
     20 C         139.8998  142.8641  158.6084 C.ar    1  UNL1        0.0021
     21 C         141.2296  142.1703  158.6121 C.ar    1  UNL1       -0.0002
     22 C         141.4896  141.0525  159.5780 C.ar    1  UNL1       -0.0027
     23 C         139.6397  143.9820  157.6425 C.ar    1  UNL1        0.0276
     24 C         138.7906  143.7426  156.4294 C.ar    1  UNL1        0.0045
     25 C         138.5305  144.8604  155.4634 C.ar    1  UNL1        0.0298
     26 C         139.1196  146.2175  155.7107 C.ar    1  UNL1        0.1424
     27 F         138.8595  147.3353  154.7449 F       1  UNL1       -0.2041
     28 C         139.9687  146.4569  156.9239 C.ar    1  UNL1        0.0592
     29 C         140.2287  145.3391  157.8898 C.ar    1  UNL1        0.1423
     30 F         141.0778  145.5785  159.1030 F       1  UNL1       -0.2041
     31 C         138.3807  139.4306  166.7549 C.3     1  UNL1        0.0762
     32 C         137.7960  138.0608  166.5769 C.3     1  UNL1        0.1411
     33 O         136.7754  137.5487  167.5496 O.3     1  UNL1       -0.3819
     34 H         137.1866  137.4377  168.4211 H       1  UNL1        0.2104
@<TRIPOS>BOND
     1    16    15    1
     2    16    17    1
     3    17    18   ar
     4    18    19   ar
     5    19    20   ar
     6    20    23    1
     7    23    24   ar
     8    24    25   ar
     9    25    26   ar
    10    26    27    1
    11    26    28   ar
    12    28    29   ar
    13    29    30    1
    14    20    21   ar
    15    21    22   ar
    16    16     1    1
    17     1     2    1
    18     2     3    1
    19     3     4    1
    20     4    31    1
    21    31    32    1
    22    32    33    1
    23     4     8    1
    24     8     9   ar
    25     9    10   ar
    26    10    11   ar
    27    11    12    1
    28    11    13   ar
    29    13    14   ar
    30     4     5    1
    31     5     6    1
    32     6     7    2
    33    22    17   ar
    34     6     1   am
    35    29    23   ar
    36    14     8   ar
    37    33    34    1
