@<TRIPOS>MOLECULE
*****
 34 37 0 0 0
SMALL
GASTEIGER

@<TRIPOS>ATOM
      1 N         144.1715  138.9478  163.8598 N.3     1  UNL1       -0.2863
      2 H         145.1668  138.9023  164.0781 H       1  UNL1        0.1240
      3 C         143.4902  139.5279  165.0637 C.3     1  UNL1        0.1341
      4 C         142.6848  140.7928  165.0970 C.3     1  UNL1        0.0471
      5 C         142.1916  140.9915  166.4996 C.3     1  UNL1        0.1031
      6 N         142.6922  139.8493  167.3331 N.am    1  UNL1       -0.2252
      7 C         142.4354  139.6473  168.7970 C.2     1  UNL1        0.2575
      8 O         143.0045  138.4507  169.5002 O.2     1  UNL1       -0.2694
      9 C         143.4948  138.9448  166.4457 C.2     1  UNL1        0.2459
     10 O         144.1815  137.6792  166.8664 O.2     1  UNL1       -0.2730
     11 C         141.6093  140.6417  169.5579 C.ar    1  UNL1        0.0851
     12 C         140.1131  140.5369  169.5491 C.ar    1  UNL1        0.0089
     13 C         139.2871  141.5313  170.3099 C.ar    1  UNL1        0.0209
     14 C         139.9574  142.6305  171.0795 C.ar    1  UNL1        0.1003
     15 N         141.4537  142.7354  171.0884 N.ar    1  UNL1       -0.2295
     16 C         142.2797  141.7410  170.3275 C.ar    1  UNL1        0.1297
     17 N         143.7760  141.8458  170.3364 N.pl3   1  UNL1       -0.3425
     18 H         144.2159  142.5673  170.8415 H       1  UNL1        0.1437
     19 H         144.3181  141.1931  169.8370 H       1  UNL1        0.1437
     20 C         144.0508  139.6289  162.5288 C.3     1  UNL1        0.1151
     21 N         141.7816  139.2935  161.1565 N.ar    1  UNL1       -0.3070
     22 C         141.3644  138.4541  159.9855 C.ar    1  UNL1        0.1786
     23 N         142.5516  137.6495  159.5455 N.ar    1  UNL1       -0.2226
     24 C         143.7024  137.9917  160.4447 C.ar    1  UNL1        0.1147
     25 C         143.2265  139.0077  161.4404 C.ar    1  UNL1        0.0739
     26 C         140.9073  140.2506  161.9113 C.3     1  UNL1        0.1340
     27 C         138.5337  138.8148  165.4544 C.ar    1  UNL1        0.0684
     28 C         139.4512  137.8716  164.7344 C.ar    1  UNL1        0.0100
     29 C         140.2424  138.3502  163.5533 C.ar    1  UNL1       -0.0017
     30 C         140.1161  139.7720  163.0923 C.ar    1  UNL1        0.0005
     31 C         139.1986  140.7152  163.8124 C.ar    1  UNL1       -0.0017
     32 C         138.4073  140.2365  164.9934 C.ar    1  UNL1        0.0100
     33 N         136.9512  137.8576  167.8166 N.1     1  UNL1       -0.1908
     34 C         137.7424  138.3362  166.6355 C.1     1  UNL1        0.1004
@<TRIPOS>BOND
     1    33    34    3
     2    34    27    1
     3    27    28   ar
     4    28    29   ar
     5    29    30   ar
     6    30    26    1
     7    26    21    1
     8    21    22   ar
     9    22    23   ar
    10    23    24   ar
    11    24    25   ar
    12    25    20    1
    13    20     1    1
    14     3     1    1
    15     3     4    1
    16     4     5    1
    17     5     6    1
    18     6     7   am
    19     7     8    2
    20     7    11    1
    21    11    12   ar
    22    12    13   ar
    23    13    14   ar
    24    14    15   ar
    25    15    16   ar
    26    16    17    1
    27     6     9   am
    28     9    10    2
    29    30    31   ar
    30    31    32   ar
    31    32    27   ar
    32    25    21   ar
    33     9     3    1
    34    16    11   ar
    35     1     2    1
    36    17    18    1
    37    17    19    1
@<TRIPOS>MOLECULE
*****
 34 37 0 0 0
SMALL
GASTEIGER

@<TRIPOS>ATOM
      1 N         139.7085  137.9101  163.2283 N.3     1  UNL1       -0.2863
      2 H         140.2432  137.0645  163.4268 H       1  UNL1        0.1240
      3 C         139.7782  138.7652  164.4587 C.3     1  UNL1        0.1341
      4 C         138.7303  139.7346  164.9193 C.3     1  UNL1        0.0471
      5 C         139.2126  140.3695  166.1899 C.3     1  UNL1        0.1031
      6 N         140.5586  139.7926  166.5145 N.am    1  UNL1       -0.2252
      7 C         141.4062  140.1452  167.7007 C.2     1  UNL1        0.2575
      8 O         142.7376  139.4821  167.8949 O.2     1  UNL1       -0.2694
      9 C         140.9082  138.8011  165.4446 C.2     1  UNL1        0.2459
     10 O         142.1668  137.9881  165.3731 O.2     1  UNL1       -0.2730
     11 C         140.9224  141.1611  168.6928 C.ar    1  UNL1        0.0851
     12 C         140.7643  142.5948  168.2815 C.ar    1  UNL1        0.0089
     13 C         140.2806  143.6107  169.2734 C.ar    1  UNL1        0.0209
     14 C         139.9550  143.1927  170.6767 C.ar    1  UNL1        0.1003
     15 N         140.1132  141.7589  171.0881 N.ar    1  UNL1       -0.2295
     16 C         140.5969  140.7430  170.0961 C.ar    1  UNL1        0.1297
     17 N         140.7550  139.3093  170.5074 N.pl3   1  UNL1       -0.3425
     18 H         140.5414  139.0350  171.4284 H       1  UNL1        0.1437
     19 H         141.0725  138.6426  169.8563 H       1  UNL1        0.1437
     20 C         140.2079  138.4404  161.9170 C.3     1  UNL1        0.1151
     21 N         142.0611  140.2905  161.3804 N.ar    1  UNL1       -0.3070
     22 C         143.5607  140.3232  161.3887 C.ar    1  UNL1        0.1786
     23 N         144.0516  138.9680  161.8042 N.ar    1  UNL1       -0.2226
     24 C         142.8554  138.0978  162.0527 C.ar    1  UNL1        0.1147
     25 C         141.6252  138.9151  161.7908 C.ar    1  UNL1        0.0739
     26 C         141.1562  141.4326  161.0243 C.3     1  UNL1        0.1340
     27 C         139.2900  143.9228  164.2748 C.ar    1  UNL1        0.0684
     28 C         140.6145  143.2579  164.5063 C.ar    1  UNL1        0.0100
     29 C         141.2366  142.4278  163.4228 C.ar    1  UNL1       -0.0017
     30 C         140.5342  142.2626  162.1078 C.ar    1  UNL1        0.0005
     31 C         139.2097  142.9275  161.8763 C.ar    1  UNL1       -0.0017
     32 C         138.5876  143.7576  162.9598 C.ar    1  UNL1        0.0100
     33 N         138.0459  145.5829  166.4419 N.1     1  UNL1       -0.1908
     34 C         138.6679  144.7528  165.3584 C.1     1  UNL1        0.1004
@<TRIPOS>BOND
     1    33    34    3
     2    34    27    1
     3    27    28   ar
     4    28    29   ar
     5    29    30   ar
     6    30    26    1
     7    26    21    1
     8    21    22   ar
     9    22    23   ar
    10    23    24   ar
    11    24    25   ar
    12    25    20    1
    13    20     1    1
    14     3     1    1
    15     3     4    1
    16     4     5    1
    17     5     6    1
    18     6     7   am
    19     7     8    2
    20     7    11    1
    21    11    12   ar
    22    12    13   ar
    23    13    14   ar
    24    14    15   ar
    25    15    16   ar
    26    16    17    1
    27     6     9   am
    28     9    10    2
    29    30    31   ar
    30    31    32   ar
    31    32    27   ar
    32    25    21   ar
    33     9     3    1
    34    16    11   ar
    35     1     2    1
    36    17    18    1
    37    17    19    1
@<TRIPOS>MOLECULE
*****
 34 37 0 0 0
SMALL
GASTEIGER

@<TRIPOS>ATOM
      1 N         137.6270  141.1480  163.1978 N.3     1  UNL1       -0.2863
      2 H         137.5925  140.1357  163.0779 H       1  UNL1        0.1240
      3 C         138.5018  141.4136  164.3869 C.3     1  UNL1        0.1341
      4 C         139.4571  142.5598  164.5403 C.3     1  UNL1        0.0471
      5 C         140.1206  142.4342  165.8797 C.3     1  UNL1        0.1031
      6 N         139.5754  141.2103  166.5541 N.am    1  UNL1       -0.2252
      7 C         139.9627  140.7058  167.9125 C.2     1  UNL1        0.2575
      8 O         139.3291  139.4608  168.4589 O.2     1  UNL1       -0.2694
      9 C         138.5749  140.5795  165.6315 C.2     1  UNL1        0.2459
     10 O         137.7861  139.3334  165.9054 O.2     1  UNL1       -0.2730
     11 C         140.9837  141.4462  168.7246 C.ar    1  UNL1        0.0851
     12 C         142.3829  141.6032  168.2076 C.ar    1  UNL1        0.0089
     13 C         143.4039  142.3435  169.0196 C.ar    1  UNL1        0.0209
     14 C         143.0256  142.9269  170.3487 C.ar    1  UNL1        0.1003
     15 N         141.6263  142.7699  170.8658 N.ar    1  UNL1       -0.2295
     16 C         140.6053  142.0296  170.0537 C.ar    1  UNL1        0.1297
     17 N         139.2061  141.8726  170.5708 N.pl3   1  UNL1       -0.3425
     18 H         138.9578  142.2555  171.4431 H       1  UNL1        0.1437
     19 H         138.5360  141.3866  170.0378 H       1  UNL1        0.1437
     20 C         137.9804  141.7306  161.8615 C.3     1  UNL1        0.1151
     21 N         140.0771  140.6649  160.5912 N.ar    1  UNL1       -0.3070
     22 C         140.2512  139.7245  159.4356 C.ar    1  UNL1        0.1786
     23 N         138.8882  139.3438  158.9383 N.ar    1  UNL1       -0.2226
     24 C         137.8716  140.0490  159.7865 C.ar    1  UNL1        0.1147
     25 C         138.6064  140.8655  160.8080 C.ar    1  UNL1        0.0739
     26 C         141.1799  141.2943  161.3897 C.3     1  UNL1        0.1340
     27 C         142.9468  139.1050  164.9018 C.ar    1  UNL1        0.0684
     28 C         141.8511  138.4712  164.0969 C.ar    1  UNL1        0.0100
     29 C         141.2622  139.2010  162.9262 C.ar    1  UNL1       -0.0017
     30 C         141.7688  140.5645  162.5604 C.ar    1  UNL1        0.0005
     31 C         142.8645  141.1983  163.3653 C.ar    1  UNL1       -0.0017
     32 C         143.4534  140.4686  164.5360 C.ar    1  UNL1        0.0100
     33 N         144.1247  137.6454  167.2432 N.1     1  UNL1       -0.1908
     34 C         143.5357  138.3752  166.0725 C.1     1  UNL1        0.1004
@<TRIPOS>BOND
     1    33    34    3
     2    34    27    1
     3    27    28   ar
     4    28    29   ar
     5    29    30   ar
     6    30    26    1
     7    26    21    1
     8    21    22   ar
     9    22    23   ar
    10    23    24   ar
    11    24    25   ar
    12    25    20    1
    13    20     1    1
    14     3     1    1
    15     3     4    1
    16     4     5    1
    17     5     6    1
    18     6     7   am
    19     7     8    2
    20     7    11    1
    21    11    12   ar
    22    12    13   ar
    23    13    14   ar
    24    14    15   ar
    25    15    16   ar
    26    16    17    1
    27     6     9   am
    28     9    10    2
    29    30    31   ar
    30    31    32   ar
    31    32    27   ar
    32    25    21   ar
    33     9     3    1
    34    16    11   ar
    35     1     2    1
    36    17    18    1
    37    17    19    1
@<TRIPOS>MOLECULE
*****
 34 37 0 0 0
SMALL
GASTEIGER

@<TRIPOS>ATOM
      1 N         144.5285  139.2017  163.7258 N.3     1  UNL1       -0.2863
      2 H         145.2956  139.8226  163.4679 H       1  UNL1        0.1240
      3 C         143.7985  139.8623  164.8574 C.3     1  UNL1        0.1341
      4 C         143.1271  141.2029  164.8104 C.3     1  UNL1        0.0471
      5 C         142.5254  141.4674  166.1587 C.3     1  UNL1        0.1031
      6 N         142.8249  140.2903  167.0389 N.am    1  UNL1       -0.2252
      7 C         142.4103  140.1329  168.4719 C.2     1  UNL1        0.2575
      8 O         142.7844  138.8932  169.2290 O.2     1  UNL1       -0.2694
      9 C         143.6117  139.2984  166.2347 C.2     1  UNL1        0.2459
     10 O         144.1221  137.9748  166.7222 O.2     1  UNL1       -0.2730
     11 C         141.6215  141.2152  169.1477 C.ar    1  UNL1        0.0851
     12 C         142.2181  142.5802  169.3226 C.ar    1  UNL1        0.0089
     13 C         141.4295  143.6625  169.9984 C.ar    1  UNL1        0.0209
     14 C         140.0442  143.3796  170.4993 C.ar    1  UNL1        0.1003
     15 N         139.4475  142.0145  170.3244 N.ar    1  UNL1       -0.2295
     16 C         140.2362  140.9323  169.6486 C.ar    1  UNL1        0.1297
     17 N         139.6396  139.5673  169.4737 N.pl3   1  UNL1       -0.3425
     18 H         138.7304  139.3816  169.8025 H       1  UNL1        0.1437
     19 H         140.1572  138.8569  169.0302 H       1  UNL1        0.1437
     20 C         143.8001  138.8641  162.4587 C.3     1  UNL1        0.1151
     21 N         141.9476  140.0490  160.9390 N.ar    1  UNL1       -0.3070
     22 C         141.8920  141.3045  160.1201 C.ar    1  UNL1        0.1786
     23 N         143.2201  141.9923  160.2353 N.ar    1  UNL1       -0.2226
     24 C         144.0966  141.1618  161.1254 C.ar    1  UNL1        0.1147
     25 C         143.3102  139.9608  161.5603 C.ar    1  UNL1        0.0739
     26 C         140.8360  139.0560  161.1071 C.3     1  UNL1        0.1340
     27 C         138.7570  138.6568  165.0780 C.ar    1  UNL1        0.0684
     28 C         138.8562  139.9986  164.4149 C.ar    1  UNL1        0.0100
     29 C         139.5493  140.1316  163.0913 C.ar    1  UNL1       -0.0017
     30 C         140.1430  138.9229  162.4307 C.ar    1  UNL1        0.0005
     31 C         140.0438  137.5811  163.0938 C.ar    1  UNL1       -0.0017
     32 C         139.3508  137.4481  164.4174 C.ar    1  UNL1        0.0100
     33 N         137.3709  138.3906  167.7252 N.1     1  UNL1       -0.1908
     34 C         138.0640  138.5237  166.4016 C.1     1  UNL1        0.1004
@<TRIPOS>BOND
     1    33    34    3
     2    34    27    1
     3    27    28   ar
     4    28    29   ar
     5    29    30   ar
     6    30    26    1
     7    26    21    1
     8    21    22   ar
     9    22    23   ar
    10    23    24   ar
    11    24    25   ar
    12    25    20    1
    13    20     1    1
    14     3     1    1
    15     3     4    1
    16     4     5    1
    17     5     6    1
    18     6     7   am
    19     7     8    2
    20     7    11    1
    21    11    12   ar
    22    12    13   ar
    23    13    14   ar
    24    14    15   ar
    25    15    16   ar
    26    16    17    1
    27     6     9   am
    28     9    10    2
    29    30    31   ar
    30    31    32   ar
    31    32    27   ar
    32    25    21   ar
    33     9     3    1
    34    16    11   ar
    35     1     2    1
    36    17    18    1
    37    17    19    1
@<TRIPOS>MOLECULE
*****
 34 37 0 0 0
SMALL
GASTEIGER

@<TRIPOS>ATOM
      1 N         142.6387  139.1065  167.3461 N.3     1  UNL1       -0.2863
      2 H         141.7293  138.6922  167.5502 H       1  UNL1        0.1240
      3 C         142.6793  139.3548  165.8674 C.3     1  UNL1        0.1341
      4 C         143.3548  140.5072  165.1850 C.3     1  UNL1        0.0471
      5 C         143.1444  140.3588  163.7072 C.3     1  UNL1        0.1031
      6 N         142.3390  139.1147  163.4764 N.am    1  UNL1       -0.2252
      7 C         141.8983  138.5842  162.1443 C.2     1  UNL1        0.2575
      8 O         141.0930  137.3209  162.0692 O.2     1  UNL1       -0.2694
      9 C         142.0515  138.4941  164.8114 C.2     1  UNL1        0.2459
     10 O         141.2729  137.2342  165.0487 O.2     1  UNL1       -0.2730
     11 C         142.2630  139.3170  160.8872 C.ar    1  UNL1        0.0851
     12 C         141.2714  140.2394  160.2424 C.ar    1  UNL1        0.0089
     13 C         141.6360  140.9722  158.9854 C.ar    1  UNL1        0.0209
     14 C         142.9922  140.7826  158.3733 C.ar    1  UNL1        0.1003
     15 N         143.9839  139.8602  159.0182 N.ar    1  UNL1       -0.2295
     16 C         143.6193  139.1274  160.2752 C.ar    1  UNL1        0.1297
     17 N         144.6109  138.2051  160.9200 N.pl3   1  UNL1       -0.3425
     18 H         145.5010  138.0806  160.5183 H       1  UNL1        0.1437
     19 H         144.3716  137.7241  161.7451 H       1  UNL1        0.1437
     20 C         142.8196  140.2471  168.3034 C.3     1  UNL1        0.1151
     21 N         140.5827  141.6179  168.8154 N.ar    1  UNL1       -0.3070
     22 C         139.6696  141.7545  169.9976 C.ar    1  UNL1        0.1786
     23 N         140.2073  140.8920  171.1008 N.ar    1  UNL1       -0.2226
     24 C         141.4528  140.2224  170.6004 C.ar    1  UNL1        0.1147
     25 C         141.6848  140.6709  169.1880 C.ar    1  UNL1        0.0739
     26 C         140.4220  142.3071  167.4929 C.3     1  UNL1        0.1340
     27 C         138.7617  140.0546  163.9687 C.ar    1  UNL1        0.0684
     28 C         138.5828  139.5138  165.3564 C.ar    1  UNL1        0.0100
     29 C         139.1363  140.2647  166.5311 C.ar    1  UNL1       -0.0017
     30 C         139.8686  141.5563  166.3182 C.ar    1  UNL1        0.0005
     31 C         140.0475  142.0970  164.9305 C.ar    1  UNL1       -0.0017
     32 C         139.4941  141.3462  163.7558 C.ar    1  UNL1        0.0100
     33 N         137.6549  138.5529  161.6193 N.1     1  UNL1       -0.1908
     34 C         138.2083  139.3037  162.7940 C.1     1  UNL1        0.1004
@<TRIPOS>BOND
     1    33    34    3
     2    34    27    1
     3    27    28   ar
     4    28    29   ar
     5    29    30   ar
     6    30    26    1
     7    26    21    1
     8    21    22   ar
     9    22    23   ar
    10    23    24   ar
    11    24    25   ar
    12    25    20    1
    13    20     1    1
    14     3     1    1
    15     3     4    1
    16     4     5    1
    17     5     6    1
    18     6     7   am
    19     7     8    2
    20     7    11    1
    21    11    12   ar
    22    12    13   ar
    23    13    14   ar
    24    14    15   ar
    25    15    16   ar
    26    16    17    1
    27     6     9   am
    28     9    10    2
    29    30    31   ar
    30    31    32   ar
    31    32    27   ar
    32    25    21   ar
    33     9     3    1
    34    16    11   ar
    35     1     2    1
    36    17    18    1
    37    17    19    1
@<TRIPOS>MOLECULE
*****
 34 37 0 0 0
SMALL
GASTEIGER

@<TRIPOS>ATOM
      1 N         144.1786  139.1644  163.7305 N.3     1  UNL1       -0.2863
      2 H         144.9814  138.6296  164.0620 H       1  UNL1        0.1240
      3 C         143.4754  139.6889  164.9471 C.3     1  UNL1        0.1341
      4 C         142.6140  140.9155  165.0075 C.3     1  UNL1        0.0471
      5 C         142.1163  141.0635  166.4148 C.3     1  UNL1        0.1031
      6 N         142.6701  139.9285  167.2241 N.am    1  UNL1       -0.2252
      7 C         142.4267  139.6856  168.6841 C.2     1  UNL1        0.2575
      8 O         143.0509  138.5020  169.3619 O.2     1  UNL1       -0.2694
      9 C         143.5100  139.0789  166.3171 C.2     1  UNL1        0.2459
     10 O         144.2540  137.8374  166.7108 O.2     1  UNL1       -0.2730
     11 C         141.5590  140.6265  169.4665 C.ar    1  UNL1        0.0851
     12 C         140.0681  140.4632  169.4472 C.ar    1  UNL1        0.0089
     13 C         139.2004  141.4040  170.2295 C.ar    1  UNL1        0.0209
     14 C         139.8237  142.5080  171.0312 C.ar    1  UNL1        0.1003
     15 N         141.3146  142.6712  171.0505 N.ar    1  UNL1       -0.2295
     16 C         142.1824  141.7304  170.2682 C.ar    1  UNL1        0.1297
     17 N         143.6732  141.8937  170.2876 N.pl3   1  UNL1       -0.3425
     18 H         144.0823  142.6182  170.8138 H       1  UNL1        0.1437
     19 H         144.2427  141.2762  169.7741 H       1  UNL1        0.1437
     20 C         144.6921  140.1171  162.6918 C.3     1  UNL1        0.1151
     21 N         143.7519  141.1819  160.4275 N.ar    1  UNL1       -0.3070
     22 C         143.3316  140.6381  159.0942 C.ar    1  UNL1        0.1786
     23 N         143.5118  139.1491  159.1231 N.ar    1  UNL1       -0.2226
     24 C         144.0434  138.7728  160.4744 C.ar    1  UNL1        0.1147
     25 C         144.1918  140.0290  161.2805 C.ar    1  UNL1        0.0739
     26 C         143.7352  142.6250  160.8360 C.3     1  UNL1        0.1340
     27 C         140.6228  144.1090  163.7276 C.ar    1  UNL1        0.0684
     28 C         140.2425  143.1383  162.6492 C.ar    1  UNL1        0.0100
     29 C         141.2799  142.6436  161.6854 C.ar    1  UNL1       -0.0017
     30 C         142.6977  143.1197  161.7999 C.ar    1  UNL1        0.0005
     31 C         143.0781  144.0904  162.8783 C.ar    1  UNL1       -0.0017
     32 C         142.0406  144.5851  163.8421 C.ar    1  UNL1        0.0100
     33 N         138.5480  145.0984  165.6553 N.1     1  UNL1       -0.1908
     34 C         139.5854  144.6037  164.6915 C.1     1  UNL1        0.1004
@<TRIPOS>BOND
     1    33    34    3
     2    34    27    1
     3    27    28   ar
     4    28    29   ar
     5    29    30   ar
     6    30    26    1
     7    26    21    1
     8    21    22   ar
     9    22    23   ar
    10    23    24   ar
    11    24    25   ar
    12    25    20    1
    13    20     1    1
    14     3     1    1
    15     3     4    1
    16     4     5    1
    17     5     6    1
    18     6     7   am
    19     7     8    2
    20     7    11    1
    21    11    12   ar
    22    12    13   ar
    23    13    14   ar
    24    14    15   ar
    25    15    16   ar
    26    16    17    1
    27     6     9   am
    28     9    10    2
    29    30    31   ar
    30    31    32   ar
    31    32    27   ar
    32    25    21   ar
    33     9     3    1
    34    16    11   ar
    35     1     2    1
    36    17    18    1
    37    17    19    1
@<TRIPOS>MOLECULE
*****
 34 37 0 0 0
SMALL
GASTEIGER

@<TRIPOS>ATOM
      1 N         137.0705  141.0864  162.9963 N.3     1  UNL1       -0.2863
      2 H         136.5088  141.7775  163.4936 H       1  UNL1        0.1240
      3 C         137.8994  141.8392  161.9983 C.3     1  UNL1        0.1341
      4 C         138.2477  141.3775  160.6142 C.3     1  UNL1        0.0471
      5 C         139.0892  142.4388  159.9696 C.3     1  UNL1        0.1031
      6 N         139.2609  143.5564  160.9552 N.am    1  UNL1       -0.2252
      7 C         140.0325  144.8223  160.7271 C.2     1  UNL1        0.2575
      8 O         140.1166  145.8551  161.8117 O.2     1  UNL1       -0.2694
      9 C         138.5256  143.1858  162.2090 C.2     1  UNL1        0.2459
     10 O         138.4328  144.0161  163.4548 O.2     1  UNL1       -0.2730
     11 C         140.7199  145.0555  159.4144 C.ar    1  UNL1        0.0851
     12 C         140.0280  145.8309  158.3329 C.ar    1  UNL1        0.0089
     13 C         140.7154  146.0641  157.0202 C.ar    1  UNL1        0.0209
     14 C         142.0947  145.5219  156.7892 C.ar    1  UNL1        0.1003
     15 N         142.7867  144.7464  157.8708 N.ar    1  UNL1       -0.2295
     16 C         142.0993  144.5132  159.1835 C.ar    1  UNL1        0.1297
     17 N         142.7912  143.7378  160.2650 N.pl3   1  UNL1       -0.3425
     18 H         143.6965  143.3819  160.1134 H       1  UNL1        0.1437
     19 H         142.3400  143.5848  161.1266 H       1  UNL1        0.1437
     20 C         137.7378  140.2395  164.0391 C.3     1  UNL1        0.1151
     21 N         140.3277  139.6102  163.8352 N.ar    1  UNL1       -0.3070
     22 C         141.0949  138.4304  163.3160 C.ar    1  UNL1        0.1786
     23 N         140.1068  137.4187  162.8157 N.ar    1  UNL1       -0.2226
     24 C         138.7289  137.9733  163.0257 C.ar    1  UNL1        0.1147
     25 C         138.8655  139.3277  163.6558 C.ar    1  UNL1        0.0739
     26 C         140.9189  140.8541  164.4295 C.3     1  UNL1        0.1340
     27 C         140.6511  141.5765  168.8631 C.ar    1  UNL1        0.0684
     28 C         140.5544  142.7292  167.9082 C.ar    1  UNL1        0.0100
     29 C         140.6436  142.4884  166.4303 C.ar    1  UNL1       -0.0017
     30 C         140.8296  141.0949  165.9074 C.ar    1  UNL1        0.0005
     31 C         140.9264  139.9422  166.8623 C.ar    1  UNL1       -0.0017
     32 C         140.8371  140.1830  168.3401 C.ar    1  UNL1        0.0100
     33 N         140.4726  142.0581  171.8188 N.1     1  UNL1       -0.1908
     34 C         140.5618  141.8173  170.3409 C.1     1  UNL1        0.1004
@<TRIPOS>BOND
     1    33    34    3
     2    34    27    1
     3    27    28   ar
     4    28    29   ar
     5    29    30   ar
     6    30    26    1
     7    26    21    1
     8    21    22   ar
     9    22    23   ar
    10    23    24   ar
    11    24    25   ar
    12    25    20    1
    13    20     1    1
    14     3     1    1
    15     3     4    1
    16     4     5    1
    17     5     6    1
    18     6     7   am
    19     7     8    2
    20     7    11    1
    21    11    12   ar
    22    12    13   ar
    23    13    14   ar
    24    14    15   ar
    25    15    16   ar
    26    16    17    1
    27     6     9   am
    28     9    10    2
    29    30    31   ar
    30    31    32   ar
    31    32    27   ar
    32    25    21   ar
    33     9     3    1
    34    16    11   ar
    35     1     2    1
    36    17    18    1
    37    17    19    1
@<TRIPOS>MOLECULE
*****
 34 37 0 0 0
SMALL
GASTEIGER

@<TRIPOS>ATOM
      1 N         138.1347  139.4676  163.5437 N.3     1  UNL1       -0.2863
      2 H         137.2153  139.2141  163.9055 H       1  UNL1        0.1240
      3 C         138.9054  140.0513  164.6906 C.3     1  UNL1        0.1341
      4 C         139.9652  141.1084  164.5935 C.3     1  UNL1        0.0471
      5 C         140.4664  141.3908  165.9788 C.3     1  UNL1        0.1031
      6 N         139.7165  140.5082  166.9319 N.am    1  UNL1       -0.2252
      7 C         139.8992  140.4616  168.4200 C.2     1  UNL1        0.2575
      8 O         139.0728  139.5228  169.2481 O.2     1  UNL1       -0.2694
      9 C         138.7517  139.6803  166.1358 C.2     1  UNL1        0.2459
     10 O         137.8003  138.6605  166.6879 O.2     1  UNL1       -0.2730
     11 C         140.9083  141.3538  169.0801 C.ar    1  UNL1        0.0851
     12 C         142.3203  141.3909  168.5755 C.ar    1  UNL1        0.0089
     13 C         143.3295  142.2831  169.2355 C.ar    1  UNL1        0.0209
     14 C         142.9265  143.1382  170.4001 C.ar    1  UNL1        0.1003
     15 N         141.5145  143.1011  170.9048 N.ar    1  UNL1       -0.2295
     16 C         140.5053  142.2089  170.2448 C.ar    1  UNL1        0.1297
     17 N         139.0933  142.1718  170.7494 N.pl3   1  UNL1       -0.3425
     18 H         138.8289  142.7330  171.5138 H       1  UNL1        0.1437
     19 H         138.4310  141.5862  170.3162 H       1  UNL1        0.1437
     20 C         138.6624  138.2640  162.8206 C.3     1  UNL1        0.1151
     21 N         140.9077  138.3801  161.3748 N.ar    1  UNL1       -0.3070
     22 C         141.2256  138.5981  159.9251 C.ar    1  UNL1        0.1786
     23 N         139.9316  138.7851  159.1897 N.ar    1  UNL1       -0.2226
     24 C         138.8139  138.6827  160.1849 C.ar    1  UNL1        0.1147
     25 C         139.4171  138.4324  161.5353 C.ar    1  UNL1        0.0739
     26 C         141.9050  138.1502  162.4713 C.3     1  UNL1        0.1340
     27 C         143.8450  141.6559  164.5198 C.ar    1  UNL1        0.0684
     28 C         143.7769  140.3267  165.2114 C.ar    1  UNL1        0.0100
     29 C         143.1303  139.1581  164.5286 C.ar    1  UNL1       -0.0017
     30 C         142.5516  139.3188  163.1541 C.ar    1  UNL1        0.0005
     31 C         142.6197  140.6480  162.4624 C.ar    1  UNL1       -0.0017
     32 C         143.2663  141.8166  163.1452 C.ar    1  UNL1        0.0100
     33 N         145.1383  143.9931  165.8854 N.1     1  UNL1       -0.1908
     34 C         144.4916  142.8245  165.2026 C.1     1  UNL1        0.1004
@<TRIPOS>BOND
     1    33    34    3
     2    34    27    1
     3    27    28   ar
     4    28    29   ar
     5    29    30   ar
     6    30    26    1
     7    26    21    1
     8    21    22   ar
     9    22    23   ar
    10    23    24   ar
    11    24    25   ar
    12    25    20    1
    13    20     1    1
    14     3     1    1
    15     3     4    1
    16     4     5    1
    17     5     6    1
    18     6     7   am
    19     7     8    2
    20     7    11    1
    21    11    12   ar
    22    12    13   ar
    23    13    14   ar
    24    14    15   ar
    25    15    16   ar
    26    16    17    1
    27     6     9   am
    28     9    10    2
    29    30    31   ar
    30    31    32   ar
    31    32    27   ar
    32    25    21   ar
    33     9     3    1
    34    16    11   ar
    35     1     2    1
    36    17    18    1
    37    17    19    1
@<TRIPOS>MOLECULE
*****
 34 37 0 0 0
SMALL
GASTEIGER

@<TRIPOS>ATOM
      1 N         137.7202  142.8619  161.0320 N.3     1  UNL1       -0.2863
      2 H         136.8692  142.3610  160.7765 H       1  UNL1        0.1240
      3 C         138.0444  142.4727  162.4439 C.3     1  UNL1        0.1341
      4 C         138.1068  143.3994  163.6217 C.3     1  UNL1        0.0471
      5 C         138.4641  142.5878  164.8316 C.3     1  UNL1        0.1031
      6 N         138.6226  141.1596  164.4014 N.am    1  UNL1       -0.2252
      7 C         138.9780  140.0052  165.2908 C.2     1  UNL1        0.2575
      8 O         139.1017  138.6255  164.7154 O.2     1  UNL1       -0.2694
      9 C         138.3632  141.0885  162.9257 C.2     1  UNL1        0.2459
     10 O         138.4137  139.8504  162.0803 O.2     1  UNL1       -0.2730
     11 C         139.2098  140.2305  166.7556 C.ar    1  UNL1        0.0851
     12 C         140.1837  141.2776  167.2084 C.ar    1  UNL1        0.0089
     13 C         140.4154  141.5029  168.6732 C.ar    1  UNL1        0.0209
     14 C         139.6733  140.6811  169.6850 C.ar    1  UNL1        0.1003
     15 N         138.6993  139.6341  169.2322 N.ar    1  UNL1       -0.2295
     16 C         138.4675  139.4087  167.7674 C.ar    1  UNL1        0.1297
     17 N         137.4937  138.3617  167.3146 N.pl3   1  UNL1       -0.3425
     18 H         137.0065  137.8224  167.9787 H       1  UNL1        0.1437
     19 H         137.3415  138.2138  166.3532 H       1  UNL1        0.1437
     20 C         138.7151  142.6116  159.9376 C.3     1  UNL1        0.1151
     21 N         141.3670  142.5543  160.2683 N.ar    1  UNL1       -0.3070
     22 C         142.4631  143.5775  160.2290 C.ar    1  UNL1        0.1786
     23 N         141.8428  144.9101  159.9300 N.ar    1  UNL1       -0.2226
     24 C         140.3632  144.7105  159.7844 C.ar    1  UNL1        0.1147
     25 C         140.0691  143.2545  159.9935 C.ar    1  UNL1        0.0739
     26 C         141.5385  141.0883  160.5354 C.3     1  UNL1        0.1340
     27 C         142.5875  139.6627  164.6727 C.ar    1  UNL1        0.0684
     28 C         142.4213  138.6729  163.5581 C.ar    1  UNL1        0.0100
     29 C         142.0716  139.1481  162.1790 C.ar    1  UNL1       -0.0017
     30 C         141.8881  140.6131  161.9145 C.ar    1  UNL1        0.0005
     31 C         142.0544  141.6029  163.0292 C.ar    1  UNL1       -0.0017
     32 C         142.4040  141.1278  164.4083 C.ar    1  UNL1        0.0100
     33 N         143.2868  138.7123  167.4309 N.1     1  UNL1       -0.1908
     34 C         142.9372  139.1875  166.0518 C.1     1  UNL1        0.1004
@<TRIPOS>BOND
     1    33    34    3
     2    34    27    1
     3    27    28   ar
     4    28    29   ar
     5    29    30   ar
     6    30    26    1
     7    26    21    1
     8    21    22   ar
     9    22    23   ar
    10    23    24   ar
    11    24    25   ar
    12    25    20    1
    13    20     1    1
    14     3     1    1
    15     3     4    1
    16     4     5    1
    17     5     6    1
    18     6     7   am
    19     7     8    2
    20     7    11    1
    21    11    12   ar
    22    12    13   ar
    23    13    14   ar
    24    14    15   ar
    25    15    16   ar
    26    16    17    1
    27     6     9   am
    28     9    10    2
    29    30    31   ar
    30    31    32   ar
    31    32    27   ar
    32    25    21   ar
    33     9     3    1
    34    16    11   ar
    35     1     2    1
    36    17    18    1
    37    17    19    1
