@<TRIPOS>MOLECULE
*****
 33 36 0 0 0
SMALL
GASTEIGER

@<TRIPOS>ATOM
      1 N         144.1605  138.6593  163.7272 N.3     1  UNL1       -0.2863
      2 H         144.9741  139.2429  163.5326 H       1  UNL1        0.1240
      3 C         143.4472  139.2843  164.8893 C.3     1  UNL1        0.1341
      4 C         142.5406  140.4778  164.8289 C.3     1  UNL1        0.0471
      5 C         142.0484  140.7567  166.2182 C.3     1  UNL1        0.1031
      6 N         142.6507  139.7356  167.1370 N.am    1  UNL1       -0.2252
      7 C         142.4277  139.6410  168.6173 C.2     1  UNL1        0.2567
      8 O         143.1013  138.5601  169.4097 O.2     1  UNL1       -0.2694
      9 C         143.5153  138.8256  166.3158 C.2     1  UNL1        0.2459
     10 O         144.3086  137.6613  166.8306 O.2     1  UNL1       -0.2730
     11 C         141.5310  140.6274  169.3053 C.ar    1  UNL1        0.0772
     12 C         140.0640  140.3435  169.4352 C.ar    1  UNL1        0.0081
     13 C         139.1673  141.3298  170.1231 C.ar    1  UNL1        0.0209
     14 C         139.7378  142.5999  170.6810 C.ar    1  UNL1        0.0994
     15 N         141.2050  142.8838  170.5511 N.ar    1  UNL1       -0.2378
     16 C         142.1016  141.8975  169.8632 C.ar    1  UNL1        0.1074
     17 S         143.5687  142.1813  169.7332 S.3     1  UNL1       -0.1226
     18 H         143.8511  143.3807  170.3088 H       1  UNL1        0.1086
     19 C         143.4444  138.4661  162.4233 C.3     1  UNL1        0.1151
     20 N         141.6291  139.9197  161.1056 N.ar    1  UNL1       -0.3070
     21 C         141.6509  141.2204  160.3588 C.ar    1  UNL1        0.1786
     22 N         143.0487  141.7622  160.4123 N.ar    1  UNL1       -0.2226
     23 C         143.8907  140.7963  161.1922 C.ar    1  UNL1        0.1147
     24 C         143.0133  139.6577  161.6207 C.ar    1  UNL1        0.0739
     25 C         140.4330  139.0362  161.3028 C.3     1  UNL1        0.1340
     26 C         138.5583  138.6631  165.3766 C.ar    1  UNL1        0.0684
     27 C         139.3875  137.5405  164.8269 C.ar    1  UNL1        0.0100
     28 C         140.0124  137.6649  163.4689 C.ar    1  UNL1       -0.0017
     29 C         139.8081  138.9119  162.6607 C.ar    1  UNL1        0.0005
     30 C         138.9790  140.0345  163.2104 C.ar    1  UNL1       -0.0017
     31 C         138.3541  139.9101  164.5684 C.ar    1  UNL1        0.0100
     32 N         137.3085  138.4144  168.0925 N.1     1  UNL1       -0.1908
     33 C         137.9334  138.5388  166.7346 C.1     1  UNL1        0.1004
@<TRIPOS>BOND
     1    32    33    3
     2    33    26    1
     3    26    27   ar
     4    27    28   ar
     5    28    29   ar
     6    29    25    1
     7    25    20    1
     8    20    21   ar
     9    21    22   ar
    10    22    23   ar
    11    23    24   ar
    12    24    19    1
    13    19     1    1
    14     3     1    1
    15     3     4    1
    16     4     5    1
    17     5     6    1
    18     6     7   am
    19     7     8    2
    20     7    11    1
    21    11    12   ar
    22    12    13   ar
    23    13    14   ar
    24    14    15   ar
    25    15    16   ar
    26    16    17    1
    27     6     9   am
    28     9    10    2
    29    29    30   ar
    30    30    31   ar
    31    31    26   ar
    32    24    20   ar
    33     9     3    1
    34    16    11   ar
    35     1     2    1
    36    17    18    1
@<TRIPOS>MOLECULE
*****
 33 36 0 0 0
SMALL
GASTEIGER

@<TRIPOS>ATOM
      1 N         144.7889  139.1145  163.3091 N.3     1  UNL1       -0.2863
      2 H         145.2715  139.9771  163.0575 H       1  UNL1        0.1240
      3 C         144.0071  139.4037  164.5561 C.3     1  UNL1        0.1341
      4 C         143.8156  138.4689  165.7134 C.3     1  UNL1        0.0471
      5 C         142.9697  139.1660  166.7374 C.3     1  UNL1        0.1031
      6 N         142.6384  140.5316  166.2129 N.am    1  UNL1       -0.2252
      7 C         141.8111  141.5683  166.9135 C.2     1  UNL1        0.2567
      8 O         141.5633  142.8963  166.2615 O.2     1  UNL1       -0.2694
      9 C         143.2795  140.6786  164.8648 C.2     1  UNL1        0.2459
     10 O         143.2059  141.8881  163.9806 O.2     1  UNL1       -0.2730
     11 C         141.2316  141.2771  168.2661 C.ar    1  UNL1        0.0772
     12 C         139.8595  140.6824  168.3819 C.ar    1  UNL1        0.0081
     13 C         139.2801  140.3911  169.7344 C.ar    1  UNL1        0.0209
     14 C         140.0728  140.6946  170.9712 C.ar    1  UNL1        0.0994
     15 N         141.4450  141.2894  170.8553 N.ar    1  UNL1       -0.2378
     16 C         142.0244  141.5806  169.5028 C.ar    1  UNL1        0.1074
     17 S         143.3965  142.1753  169.3870 S.3     1  UNL1       -0.1226
     18 H         143.9165  142.3611  170.6298 H       1  UNL1        0.1086
     19 C         144.0826  138.6377  162.0746 C.3     1  UNL1        0.1151
     20 N         141.9041  139.4695  160.7678 N.ar    1  UNL1       -0.3070
     21 C         141.5604  140.6683  159.9344 C.ar    1  UNL1        0.1786
     22 N         142.7714  141.5513  159.8706 N.ar    1  UNL1       -0.2226
     23 C         143.8636  140.8980  160.6646 C.ar    1  UNL1        0.1147
     24 C         143.3277  139.6114  161.2191 C.ar    1  UNL1        0.0739
     25 C         140.9858  138.3289  161.0929 C.3     1  UNL1        0.1340
     26 C         138.7925  138.2556  165.0216 C.ar    1  UNL1        0.0684
     27 C         139.9875  137.3732  164.8131 C.ar    1  UNL1        0.0100
     28 C         140.7186  137.3977  163.5036 C.ar    1  UNL1       -0.0017
     29 C         140.2547  138.3045  162.4025 C.ar    1  UNL1        0.0005
     30 C         139.0597  139.1868  162.6109 C.ar    1  UNL1       -0.0017
     31 C         138.3286  139.1623  163.9204 C.ar    1  UNL1        0.0100
     32 N         137.3304  138.2066  167.6407 N.1     1  UNL1       -0.1908
     33 C         138.0615  138.2311  166.3311 C.1     1  UNL1        0.1004
@<TRIPOS>BOND
     1    32    33    3
     2    33    26    1
     3    26    27   ar
     4    27    28   ar
     5    28    29   ar
     6    29    25    1
     7    25    20    1
     8    20    21   ar
     9    21    22   ar
    10    22    23   ar
    11    23    24   ar
    12    24    19    1
    13    19     1    1
    14     3     1    1
    15     3     4    1
    16     4     5    1
    17     5     6    1
    18     6     7   am
    19     7     8    2
    20     7    11    1
    21    11    12   ar
    22    12    13   ar
    23    13    14   ar
    24    14    15   ar
    25    15    16   ar
    26    16    17    1
    27     6     9   am
    28     9    10    2
    29    29    30   ar
    30    30    31   ar
    31    31    26   ar
    32    24    20   ar
    33     9     3    1
    34    16    11   ar
    35     1     2    1
    36    17    18    1
@<TRIPOS>MOLECULE
*****
 33 36 0 0 0
SMALL
GASTEIGER

@<TRIPOS>ATOM
      1 N         138.6341  137.5002  163.0044 N.3     1  UNL1       -0.2863
      2 H         139.2190  136.7197  162.7059 H       1  UNL1        0.1240
      3 C         139.3787  138.2052  164.0992 C.3     1  UNL1        0.1341
      4 C         138.7701  139.0621  165.1693 C.3     1  UNL1        0.0471
      5 C         139.8779  139.5636  166.0475 C.3     1  UNL1        0.1031
      6 N         141.1712  139.0166  165.5201 N.am    1  UNL1       -0.2252
      7 C         142.5337  139.2655  166.0958 C.2     1  UNL1        0.2567
      8 O         143.7421  138.6478  165.4569 O.2     1  UNL1       -0.2694
      9 C         140.8627  138.1771  164.3160 C.2     1  UNL1        0.2459
     10 O         141.8626  137.4390  163.4761 O.2     1  UNL1       -0.2730
     11 C         142.6879  140.1321  167.3105 C.ar    1  UNL1        0.0772
     12 C         142.5417  139.5371  168.6796 C.ar    1  UNL1        0.0081
     13 C         142.6959  140.4036  169.8943 C.ar    1  UNL1        0.0209
     14 C         142.9964  141.8651  169.7397 C.ar    1  UNL1        0.0994
     15 N         143.1426  142.4600  168.3705 N.ar    1  UNL1       -0.2378
     16 C         142.9884  141.5935  167.1559 C.ar    1  UNL1        0.1074
     17 S         143.1347  142.1884  165.7868 S.3     1  UNL1       -0.1226
     18 H         143.4033  143.5172  165.8962 H       1  UNL1        0.1086
     19 C         138.2411  138.2460  161.7637 C.3     1  UNL1        0.1151
     20 N         139.2865  140.1736  160.2351 N.ar    1  UNL1       -0.3070
     21 C         140.5334  140.3168  159.4137 C.ar    1  UNL1        0.1786
     22 N         141.3156  139.0423  159.5324 N.ar    1  UNL1       -0.2226
     23 C         140.5520  138.1115  160.4272 C.ar    1  UNL1        0.1147
     24 C         139.2980  138.8106  160.8615 C.ar    1  UNL1        0.0739
     25 C         138.2160  141.2111  160.4010 C.3     1  UNL1        0.1340
     26 C         138.1863  143.8506  164.0456 C.ar    1  UNL1        0.0684
     27 C         138.8813  144.3047  162.7963 C.ar    1  UNL1        0.0100
     28 C         138.8912  143.4249  161.5815 C.ar    1  UNL1       -0.0017
     29 C         138.2061  142.0909  161.6159 C.ar    1  UNL1        0.0005
     30 C         137.5111  141.6368  162.8651 C.ar    1  UNL1       -0.0017
     31 C         137.5012  142.5166  164.0800 C.ar    1  UNL1        0.0100
     32 N         138.1665  145.6102  166.4753 N.1     1  UNL1       -0.1908
     33 C         138.1764  144.7304  165.2604 C.1     1  UNL1        0.1004
@<TRIPOS>BOND
     1    32    33    3
     2    33    26    1
     3    26    27   ar
     4    27    28   ar
     5    28    29   ar
     6    29    25    1
     7    25    20    1
     8    20    21   ar
     9    21    22   ar
    10    22    23   ar
    11    23    24   ar
    12    24    19    1
    13    19     1    1
    14     3     1    1
    15     3     4    1
    16     4     5    1
    17     5     6    1
    18     6     7   am
    19     7     8    2
    20     7    11    1
    21    11    12   ar
    22    12    13   ar
    23    13    14   ar
    24    14    15   ar
    25    15    16   ar
    26    16    17    1
    27     6     9   am
    28     9    10    2
    29    29    30   ar
    30    30    31   ar
    31    31    26   ar
    32    24    20   ar
    33     9     3    1
    34    16    11   ar
    35     1     2    1
    36    17    18    1
@<TRIPOS>MOLECULE
*****
 33 36 0 0 0
SMALL
GASTEIGER

@<TRIPOS>ATOM
      1 N         143.0671  137.9841  162.3870 N.3     1  UNL1       -0.2863
      2 H         143.7432  138.4916  161.8163 H       1  UNL1        0.1240
      3 C         142.8227  138.8158  163.6111 C.3     1  UNL1        0.1341
      4 C         142.3119  138.3153  164.9296 C.3     1  UNL1        0.0471
      5 C         142.2196  139.4843  165.8650 C.3     1  UNL1        0.1031
      6 N         142.6735  140.7073  165.1245 N.am    1  UNL1       -0.2252
      7 C         142.7425  142.0990  165.6796 C.2     1  UNL1        0.2567
      8 O         143.2194  143.2284  164.8153 O.2     1  UNL1       -0.2694
      9 C         143.0462  140.2942  163.7315 C.2     1  UNL1        0.2459
     10 O         143.5533  141.2003  162.6491 O.2     1  UNL1       -0.2730
     11 C         142.3346  142.3615  167.0991 C.ar    1  UNL1        0.0772
     12 C         143.3255  142.1787  168.2101 C.ar    1  UNL1        0.0081
     13 C         142.9177  142.4411  169.6296 C.ar    1  UNL1        0.0209
     14 C         141.5189  142.8864  169.9379 C.ar    1  UNL1        0.0994
     15 N         140.5279  143.0692  168.8268 N.ar    1  UNL1       -0.2378
     16 C         140.9358  142.8068  167.4073 C.ar    1  UNL1        0.1074
     17 S         139.9448  142.9896  166.2963 S.3     1  UNL1       -0.1226
     18 H         138.7537  143.3941  166.8132 H       1  UNL1        0.1086
     19 C         141.9242  137.6225  161.4853 C.3     1  UNL1        0.1151
     20 N         139.8358  138.9944  160.5357 N.ar    1  UNL1       -0.3070
     21 C         139.6584  140.1000  159.5376 C.ar    1  UNL1        0.1786
     22 N         141.0110  140.4577  158.9966 N.ar    1  UNL1       -0.2226
     23 C         142.0244  139.5731  159.6604 C.ar    1  UNL1        0.1147
     24 C         141.2982  138.6688  160.6116 C.ar    1  UNL1        0.0739
     25 C         138.7430  138.3309  161.3201 C.3     1  UNL1        0.1340
     26 C         138.4595  138.9672  165.7659 C.ar    1  UNL1        0.0684
     27 C         138.2079  140.1097  164.8272 C.ar    1  UNL1        0.0100
     28 C         138.3024  139.8976  163.3453 C.ar    1  UNL1       -0.0017
     29 C         138.6485  138.5430  162.8021 C.ar    1  UNL1        0.0005
     30 C         138.9001  137.4005  163.7408 C.ar    1  UNL1       -0.0017
     31 C         138.8056  137.6126  165.2227 C.ar    1  UNL1        0.0100
     32 N         138.2706  139.3914  168.7297 N.1     1  UNL1       -0.1908
     33 C         138.3650  139.1793  167.2478 C.1     1  UNL1        0.1004
@<TRIPOS>BOND
     1    32    33    3
     2    33    26    1
     3    26    27   ar
     4    27    28   ar
     5    28    29   ar
     6    29    25    1
     7    25    20    1
     8    20    21   ar
     9    21    22   ar
    10    22    23   ar
    11    23    24   ar
    12    24    19    1
    13    19     1    1
    14     3     1    1
    15     3     4    1
    16     4     5    1
    17     5     6    1
    18     6     7   am
    19     7     8    2
    20     7    11    1
    21    11    12   ar
    22    12    13   ar
    23    13    14   ar
    24    14    15   ar
    25    15    16   ar
    26    16    17    1
    27     6     9   am
    28     9    10    2
    29    29    30   ar
    30    30    31   ar
    31    31    26   ar
    32    24    20   ar
    33     9     3    1
    34    16    11   ar
    35     1     2    1
    36    17    18    1
@<TRIPOS>MOLECULE
*****
 33 36 0 0 0
SMALL
GASTEIGER

@<TRIPOS>ATOM
      1 N         138.5803  139.8316  165.9022 N.3     1  UNL1       -0.2863
      2 H         137.9920  140.5928  166.2411 H       1  UNL1        0.1240
      3 C         139.0954  140.2488  164.5566 C.3     1  UNL1        0.1341
      4 C         140.3732  139.7882  163.9201 C.3     1  UNL1        0.0471
      5 C         140.4906  140.4545  162.5813 C.3     1  UNL1        0.1031
      6 N         139.2855  141.3269  162.3905 N.am    1  UNL1       -0.2252
      7 C         138.9938  142.1771  161.1897 C.2     1  UNL1        0.2567
      8 O         137.7413  143.0012  161.1405 O.2     1  UNL1       -0.2694
      9 C         138.4232  141.1997  163.6112 C.2     1  UNL1        0.2459
     10 O         137.1178  141.9005  163.8455 O.2     1  UNL1       -0.2730
     11 C         139.9545  142.2034  160.0380 C.ar    1  UNL1        0.0772
     12 C         141.1054  143.1653  160.0432 C.ar    1  UNL1        0.0081
     13 C         142.0662  143.1916  158.8916 C.ar    1  UNL1        0.0209
     14 C         141.8760  142.2559  157.7347 C.ar    1  UNL1        0.0994
     15 N         140.7250  141.2940  157.7295 N.ar    1  UNL1       -0.2378
     16 C         139.7642  141.2677  158.8811 C.ar    1  UNL1        0.1074
     17 S         138.6134  140.3058  158.8759 S.3     1  UNL1       -0.1226
     18 H         138.6458  139.5663  157.7349 H       1  UNL1        0.1086
     19 C         139.5427  139.5040  167.0052 C.3     1  UNL1        0.1151
     20 N         140.6895  141.6016  168.2009 N.ar    1  UNL1       -0.3070
     21 C         140.5322  142.2827  169.5281 C.ar    1  UNL1        0.1786
     22 N         139.4684  141.5576  170.2980 N.ar    1  UNL1       -0.2226
     23 C         138.9682  140.4284  169.4466 C.ar    1  UNL1        0.1147
     24 C         139.7229  140.4556  168.1506 C.ar    1  UNL1        0.0739
     25 C         141.6455  141.9971  167.1148 C.3     1  UNL1        0.1340
     26 C         140.2482  144.6118  163.7294 C.ar    1  UNL1        0.0684
     27 C         141.5757  143.9189  163.6433 C.ar    1  UNL1        0.0100
     28 C         142.0415  143.0473  164.7717 C.ar    1  UNL1       -0.0017
     29 C         141.1797  142.8686  165.9864 C.ar    1  UNL1        0.0005
     30 C         139.8522  143.5615  166.0725 C.ar    1  UNL1       -0.0017
     31 C         139.3864  144.4331  164.9441 C.ar    1  UNL1        0.0100
     32 N         139.3166  146.3549  161.4725 N.1     1  UNL1       -0.1908
     33 C         139.7824  145.4833  162.6010 C.1     1  UNL1        0.1004
@<TRIPOS>BOND
     1    32    33    3
     2    33    26    1
     3    26    27   ar
     4    27    28   ar
     5    28    29   ar
     6    29    25    1
     7    25    20    1
     8    20    21   ar
     9    21    22   ar
    10    22    23   ar
    11    23    24   ar
    12    24    19    1
    13    19     1    1
    14     3     1    1
    15     3     4    1
    16     4     5    1
    17     5     6    1
    18     6     7   am
    19     7     8    2
    20     7    11    1
    21    11    12   ar
    22    12    13   ar
    23    13    14   ar
    24    14    15   ar
    25    15    16   ar
    26    16    17    1
    27     6     9   am
    28     9    10    2
    29    29    30   ar
    30    30    31   ar
    31    31    26   ar
    32    24    20   ar
    33     9     3    1
    34    16    11   ar
    35     1     2    1
    36    17    18    1
@<TRIPOS>MOLECULE
*****
 33 36 0 0 0
SMALL
GASTEIGER

@<TRIPOS>ATOM
      1 N         139.2900  137.5632  163.6640 N.3     1  UNL1       -0.2863
      2 H         140.0800  136.9185  163.6908 H       1  UNL1        0.1240
      3 C         139.4530  138.4964  164.8269 C.3     1  UNL1        0.1341
      4 C         138.3430  139.1529  165.5929 C.3     1  UNL1        0.0471
      5 C         138.9587  139.9992  166.6675 C.3     1  UNL1        0.1031
      6 N         140.4492  139.8657  166.5656 N.am    1  UNL1       -0.2252
      7 C         141.4572  140.5422  167.4466 C.2     1  UNL1        0.2567
      8 O         142.9226  140.3118  167.2238 O.2     1  UNL1       -0.2694
      9 C         140.7548  138.9369  165.4281 C.2     1  UNL1        0.2459
     10 O         142.1220  138.5215  164.9719 O.2     1  UNL1       -0.2730
     11 C         140.9999  141.4490  168.5506 C.ar    1  UNL1        0.0772
     12 C         140.6469  142.8758  168.2513 C.ar    1  UNL1        0.0081
     13 C         140.1896  143.7827  169.3551 C.ar    1  UNL1        0.0209
     14 C         140.0853  143.2627  170.7582 C.ar    1  UNL1        0.0994
     15 N         140.4384  141.8359  171.0575 N.ar    1  UNL1       -0.2378
     16 C         140.8957  140.9290  169.9537 C.ar    1  UNL1        0.1074
     17 S         141.2487  139.5023  170.2530 S.3     1  UNL1       -0.1226
     18 H         141.0783  139.2620  171.5807 H       1  UNL1        0.1086
     19 C         139.2235  138.1086  162.2682 C.3     1  UNL1        0.1151
     20 N         140.6517  139.8893  160.8773 N.ar    1  UNL1       -0.3070
     21 C         142.0538  139.9425  160.3468 C.ar    1  UNL1        0.1786
     22 N         142.7425  138.6656  160.7281 N.ar    1  UNL1       -0.2226
     23 C         141.7660  137.8232  161.4943 C.ar    1  UNL1        0.1147
     24 C         140.4739  138.5794  161.5865 C.ar    1  UNL1        0.0739
     25 C         139.6103  140.9581  160.7254 C.3     1  UNL1        0.1340
     26 C         138.7175  143.7333  164.1534 C.ar    1  UNL1        0.0684
     27 C         139.9808  142.9246  164.1525 C.ar    1  UNL1        0.0100
     28 C         140.2784  141.9995  163.0098 C.ar    1  UNL1       -0.0017
     29 C         139.3127  141.8831  161.8680 C.ar    1  UNL1        0.0005
     30 C         138.0494  142.6918  161.8689 C.ar    1  UNL1       -0.0017
     31 C         137.7518  143.6168  163.0116 C.ar    1  UNL1        0.0100
     32 N         138.1223  145.5834  166.4387 N.1     1  UNL1       -0.1908
     33 C         138.4199  144.6583  165.2960 C.1     1  UNL1        0.1004
@<TRIPOS>BOND
     1    32    33    3
     2    33    26    1
     3    26    27   ar
     4    27    28   ar
     5    28    29   ar
     6    29    25    1
     7    25    20    1
     8    20    21   ar
     9    21    22   ar
    10    22    23   ar
    11    23    24   ar
    12    24    19    1
    13    19     1    1
    14     3     1    1
    15     3     4    1
    16     4     5    1
    17     5     6    1
    18     6     7   am
    19     7     8    2
    20     7    11    1
    21    11    12   ar
    22    12    13   ar
    23    13    14   ar
    24    14    15   ar
    25    15    16   ar
    26    16    17    1
    27     6     9   am
    28     9    10    2
    29    29    30   ar
    30    30    31   ar
    31    31    26   ar
    32    24    20   ar
    33     9     3    1
    34    16    11   ar
    35     1     2    1
    36    17    18    1
@<TRIPOS>MOLECULE
*****
 33 36 0 0 0
SMALL
GASTEIGER

@<TRIPOS>ATOM
      1 N         143.5005  139.6495  165.3432 N.3     1  UNL1       -0.2863
      2 H         143.6910  138.7485  164.9048 H       1  UNL1        0.1240
      3 C         142.9897  140.5569  164.2635 C.3     1  UNL1        0.1341
      4 C         141.8295  140.2794  163.3542 C.3     1  UNL1        0.0471
      5 C         141.6722  141.4522  162.4323 C.3     1  UNL1        0.1031
      6 N         142.7351  142.4545  162.7720 N.am    1  UNL1       -0.2252
      7 C         142.9467  143.7778  162.0982 C.2     1  UNL1        0.2567
      8 O         144.0572  144.6799  162.5488 O.2     1  UNL1       -0.2694
      9 C         143.5494  141.9013  163.9037 C.2     1  UNL1        0.2459
     10 O         144.7182  142.5742  164.5603 O.2     1  UNL1       -0.2730
     11 C         142.0476  144.1992  160.9737 C.ar    1  UNL1        0.0772
     12 C         142.3661  143.7913  159.5659 C.ar    1  UNL1        0.0081
     13 C         141.4672  144.2126  158.4414 C.ar    1  UNL1        0.0209
     14 C         140.2498  145.0417  158.7249 C.ar    1  UNL1        0.0994
     15 N         139.9313  145.4496  160.1328 N.ar    1  UNL1       -0.2378
     16 C         140.8302  145.0283  161.2573 C.ar    1  UNL1        0.1074
     17 S         140.5117  145.4361  162.6651 S.3     1  UNL1       -0.1226
     18 H         139.3710  146.1765  162.6755 H       1  UNL1        0.1086
     19 C         142.6568  139.3731  166.5522 C.3     1  UNL1        0.1151
     20 N         140.5553  140.6782  167.5648 N.ar    1  UNL1       -0.3070
     21 C         140.3690  141.9479  168.3415 C.ar    1  UNL1        0.1786
     22 N         141.7204  142.5628  168.5559 N.ar    1  UNL1       -0.2226
     23 C         142.7419  141.6730  167.9116 C.ar    1  UNL1        0.1147
     24 C         142.0219  140.5083  167.2992 C.ar    1  UNL1        0.0739
     25 C         139.4664  139.7427  167.1302 C.3     1  UNL1        0.1340
     26 C         138.1240  139.6931  162.8353 C.ar    1  UNL1        0.0684
     27 C         138.6784  138.4483  163.4623 C.ar    1  UNL1        0.0100
     28 C         139.1258  138.4648  164.8939 C.ar    1  UNL1       -0.0017
     29 C         139.0189  139.7261  165.6986 C.ar    1  UNL1        0.0005
     30 C         138.4646  140.9709  165.0716 C.ar    1  UNL1       -0.0017
     31 C         138.0171  140.9544  163.6400 C.ar    1  UNL1        0.0100
     32 N         137.2291  139.6600  159.9721 N.1     1  UNL1       -0.1908
     33 C         137.6766  139.6765  161.4037 C.1     1  UNL1        0.1004
@<TRIPOS>BOND
     1    32    33    3
     2    33    26    1
     3    26    27   ar
     4    27    28   ar
     5    28    29   ar
     6    29    25    1
     7    25    20    1
     8    20    21   ar
     9    21    22   ar
    10    22    23   ar
    11    23    24   ar
    12    24    19    1
    13    19     1    1
    14     3     1    1
    15     3     4    1
    16     4     5    1
    17     5     6    1
    18     6     7   am
    19     7     8    2
    20     7    11    1
    21    11    12   ar
    22    12    13   ar
    23    13    14   ar
    24    14    15   ar
    25    15    16   ar
    26    16    17    1
    27     6     9   am
    28     9    10    2
    29    29    30   ar
    30    30    31   ar
    31    31    26   ar
    32    24    20   ar
    33     9     3    1
    34    16    11   ar
    35     1     2    1
    36    17    18    1
@<TRIPOS>MOLECULE
*****
 33 36 0 0 0
SMALL
GASTEIGER

@<TRIPOS>ATOM
      1 N         144.5113  139.6449  163.5543 N.3     1  UNL1       -0.2863
      2 H         145.4176  139.3150  163.8862 H       1  UNL1        0.1240
      3 C         143.7513  140.1098  164.7610 C.3     1  UNL1        0.1341
      4 C         142.9179  141.3535  164.8530 C.3     1  UNL1        0.0471
      5 C         142.3428  141.4249  166.2365 C.3     1  UNL1        0.1031
      6 N         142.8208  140.2252  166.9996 N.am    1  UNL1       -0.2252
      7 C         142.4868  139.8962  168.4244 C.2     1  UNL1        0.2567
      8 O         143.0416  138.6545  169.0572 O.2     1  UNL1       -0.2694
      9 C         143.6913  139.4125  166.0877 C.2     1  UNL1        0.2459
     10 O         144.3807  138.1279  166.4406 O.2     1  UNL1       -0.2730
     11 C         141.5981  140.8088  169.2165 C.ar    1  UNL1        0.0772
     12 C         140.1315  140.5153  169.3292 C.ar    1  UNL1        0.0081
     13 C         139.2427  141.4278  170.1213 C.ar    1  UNL1        0.0209
     14 C         139.8206  142.6338  170.8006 C.ar    1  UNL1        0.0994
     15 N         141.2873  142.9273  170.6879 N.ar    1  UNL1       -0.2378
     16 C         142.1761  142.0148  169.8958 C.ar    1  UNL1        0.1074
     17 S         143.6427  142.3083  169.7831 S.3     1  UNL1       -0.1226
     18 H         143.9326  143.4425  170.4752 H       1  UNL1        0.1086
     19 C         144.7833  140.5962  162.4267 C.3     1  UNL1        0.1151
     20 N         143.3623  141.5675  160.3816 N.ar    1  UNL1       -0.3070
     21 C         142.7432  140.9817  159.1473 C.ar    1  UNL1        0.1786
     22 N         143.0356  139.5105  159.1355 N.ar    1  UNL1       -0.2226
     23 C         143.8354  139.1870  160.3626 C.ar    1  UNL1        0.1147
     24 C         144.0374  140.4582  161.1327 C.ar    1  UNL1        0.0739
     25 C         143.3148  143.0092  160.7927 C.3     1  UNL1        0.1340
     26 C         140.3210  144.3764  163.8616 C.ar    1  UNL1        0.0684
     27 C         141.6990  144.9685  163.8424 C.ar    1  UNL1        0.0100
     28 C         142.6970  144.5127  162.8195 C.ar    1  UNL1       -0.0017
     29 C         142.3169  143.4650  161.8157 C.ar    1  UNL1        0.0005
     30 C         140.9388  142.8729  161.8349 C.ar    1  UNL1       -0.0017
     31 C         139.9409  143.3286  162.8578 C.ar    1  UNL1        0.0100
     32 N         138.3251  145.2878  165.9075 N.1     1  UNL1       -0.1908
     33 C         139.3231  144.8321  164.8846 C.1     1  UNL1        0.1004
@<TRIPOS>BOND
     1    32    33    3
     2    33    26    1
     3    26    27   ar
     4    27    28   ar
     5    28    29   ar
     6    29    25    1
     7    25    20    1
     8    20    21   ar
     9    21    22   ar
    10    22    23   ar
    11    23    24   ar
    12    24    19    1
    13    19     1    1
    14     3     1    1
    15     3     4    1
    16     4     5    1
    17     5     6    1
    18     6     7   am
    19     7     8    2
    20     7    11    1
    21    11    12   ar
    22    12    13   ar
    23    13    14   ar
    24    14    15   ar
    25    15    16   ar
    26    16    17    1
    27     6     9   am
    28     9    10    2
    29    29    30   ar
    30    30    31   ar
    31    31    26   ar
    32    24    20   ar
    33     9     3    1
    34    16    11   ar
    35     1     2    1
    36    17    18    1
@<TRIPOS>MOLECULE
*****
 33 36 0 0 0
SMALL
GASTEIGER

@<TRIPOS>ATOM
      1 N         140.4236  142.2756  161.7478 N.3     1  UNL1       -0.2863
      2 H         139.4628  142.4999  161.4889 H       1  UNL1        0.1240
      3 C         140.4318  142.0543  163.2313 C.3     1  UNL1        0.1341
      4 C         139.3039  141.4929  164.0453 C.3     1  UNL1        0.0471
      5 C         139.7445  141.4472  165.4785 C.3     1  UNL1        0.1031
      6 N         141.1447  141.9804  165.5501 N.am    1  UNL1       -0.2252
      7 C         141.9744  142.1148  166.7925 C.2     1  UNL1        0.2567
      8 O         143.3661  142.6682  166.7087 O.2     1  UNL1       -0.2694
      9 C         141.5695  142.3556  164.1613 C.2     1  UNL1        0.2459
     10 O         142.8986  142.9311  163.7711 O.2     1  UNL1       -0.2730
     11 C         141.4124  141.6957  168.1187 C.ar    1  UNL1        0.0772
     12 C         140.5419  142.6381  168.8958 C.ar    1  UNL1        0.0081
     13 C         139.9800  142.2191  170.2219 C.ar    1  UNL1        0.0209
     14 C         140.2886  140.8578  170.7709 C.ar    1  UNL1        0.0994
     15 N         141.1592  139.9154  169.9937 N.ar    1  UNL1       -0.2378
     16 C         141.7212  140.3343  168.6676 C.ar    1  UNL1        0.1074
     17 S         142.5917  139.3920  167.8905 S.3     1  UNL1       -0.1226
     18 H         142.7298  138.2285  168.5810 H       1  UNL1        0.1086
     19 C         140.8774  141.1843  160.8241 C.3     1  UNL1        0.1151
     20 N         142.7158  139.2618  161.0871 N.ar    1  UNL1       -0.3070
     21 C         144.2153  139.2210  161.0870 C.ar    1  UNL1        0.1786
     22 N         144.7171  140.6206  160.8883 N.ar    1  UNL1       -0.2226
     23 C         143.5278  141.5264  160.7656 C.ar    1  UNL1        0.1147
     24 C         142.2909  140.6867  160.8885 C.ar    1  UNL1        0.0739
     25 C         141.8017  138.0846  161.2562 C.3     1  UNL1        0.1340
     26 C         139.0762  137.8470  164.8290 C.ar    1  UNL1        0.0684
     27 C         138.4992  137.8499  163.4444 C.ar    1  UNL1        0.0100
     28 C         139.4078  137.9291  162.2535 C.ar    1  UNL1       -0.0017
     29 C         140.8932  138.0054  162.4471 C.ar    1  UNL1        0.0005
     30 C         141.4702  138.0026  163.8317 C.ar    1  UNL1       -0.0017
     31 C         140.5616  137.9234  165.0226 C.ar    1  UNL1        0.0100
     32 N         137.2592  137.6886  167.2109 N.1     1  UNL1       -0.1908
     33 C         138.1677  137.7678  166.0199 C.1     1  UNL1        0.1004
@<TRIPOS>BOND
     1    32    33    3
     2    33    26    1
     3    26    27   ar
     4    27    28   ar
     5    28    29   ar
     6    29    25    1
     7    25    20    1
     8    20    21   ar
     9    21    22   ar
    10    22    23   ar
    11    23    24   ar
    12    24    19    1
    13    19     1    1
    14     3     1    1
    15     3     4    1
    16     4     5    1
    17     5     6    1
    18     6     7   am
    19     7     8    2
    20     7    11    1
    21    11    12   ar
    22    12    13   ar
    23    13    14   ar
    24    14    15   ar
    25    15    16   ar
    26    16    17    1
    27     6     9   am
    28     9    10    2
    29    29    30   ar
    30    30    31   ar
    31    31    26   ar
    32    24    20   ar
    33     9     3    1
    34    16    11   ar
    35     1     2    1
    36    17    18    1
