@<TRIPOS>MOLECULE
*****
 35 39 0 0 0
SMALL
GASTEIGER

@<TRIPOS>ATOM
      1 C         141.2085  142.0721  161.9913 C.3     1  UNL1        0.0545
      2 C         140.9057  143.5277  161.7922 C.3     1  UNL1        0.0162
      3 C         139.6001  143.8262  162.4677 C.3     1  UNL1        0.0095
      4 C         138.6061  144.9102  162.7621 C.3     1  UNL1        0.0005
      5 C         137.4876  144.3092  163.5607 C.3     1  UNL1        0.0005
      6 C         137.7903  142.8536  163.7598 C.3     1  UNL1        0.0087
      7 C         139.0959  142.5551  163.0843 C.3     1  UNL1        0.0704
      8 C         140.0900  141.4710  162.7899 C.3     1  UNL1        0.0243
      9 C         138.5918  141.2840  163.7009 C.2     1  UNL1        0.2250
     10 O         137.7416  140.3459  162.8965 O.2     1  UNL1       -0.2749
     11 N         138.9379  140.9510  165.1220 N.am    1  UNL1       -0.2751
     12 C         138.4338  139.6800  165.7386 C.3     1  UNL1        0.0984
     13 C         138.7800  139.3470  167.1596 C.3     1  UNL1        0.0476
     14 C         139.6302  140.2852  167.9640 C.ar    1  UNL1       -0.0226
     15 C         139.9763  139.9522  169.3851 C.ar    1  UNL1       -0.0014
     16 C         140.8265  140.8903  170.1895 C.ar    1  UNL1        0.0368
     17 C         141.3306  142.1614  169.5728 C.ar    1  UNL1        0.1465
     18 C         140.9845  142.4943  168.1518 C.ar    1  UNL1        0.0343
     19 C         140.1343  141.5562  167.3474 C.ar    1  UNL1       -0.0032
     20 C         139.7882  141.8891  165.9264 C.3     1  UNL1        0.1199
     21 O         142.1809  143.0995  170.3772 O.3     1  UNL1       -0.4045
     22 C         143.6762  143.0005  170.3107 C.3     1  UNL1        0.5753
     23 F         145.1714  142.9016  170.2442 F       1  UNL1       -0.1328
     24 F         143.7944  144.1276  171.2934 F       1  UNL1       -0.1328
     25 F         143.5579  141.8735  169.3280 F       1  UNL1       -0.1328
     26 N         142.4175  141.3452  161.4814 N.3     1  UNL1       -0.2975
     27 H         142.0819  140.4892  161.0397 H       1  UNL1        0.1232
     28 C         144.6242  141.8974  162.7366 C.3     1  UNL1        0.1591
     29 C         145.7139  141.4962  163.6861 C.3     1  UNL1        0.1729
     30 O         145.6867  140.1417  164.3298 O.3     1  UNL1       -0.3511
     31 C         144.5697  139.1882  164.0241 C.3     1  UNL1        0.1437
     32 C         143.4800  139.5894  163.0747 C.3     1  UNL1        0.0503
     33 C         143.5072  140.9440  162.4309 C.3     1  UNL1        0.0865
     34 C         144.1344  144.4469  162.8377 C.3     1  UNL1        0.1742
     35 O         144.6514  143.2519  162.0928 O.3     1  UNL1       -0.3496
@<TRIPOS>BOND
     1    34    35    1
     2    35    28    1
     3    28    29    1
     4    29    30    1
     5    30    31    1
     6    31    32    1
     7    32    33    1
     8    33    26    1
     9     1    26    1
    10     1     2    1
    11     3     2    1
    12     3     4    1
    13     4     5    1
    14     5     6    1
    15     6     7    1
    16     7     9    1
    17     9    10    2
    18     9    11   am
    19    11    12    1
    20    12    13    1
    21    13    14    1
    22    14    15   ar
    23    15    16   ar
    24    16    17   ar
    25    17    21    1
    26    21    22    1
    27    22    23    1
    28    22    24    1
    29    22    25    1
    30    17    18   ar
    31    18    19   ar
    32    19    20    1
    33     7     8    1
    34    33    28    1
    35     8     1    1
    36     7     3    1
    37    20    11    1
    38    19    14   ar
    39    26    27    1
@<TRIPOS>MOLECULE
*****
 35 39 0 0 0
SMALL
GASTEIGER

@<TRIPOS>ATOM
      1 C         139.5626  139.3346  166.3488 C.3     1  UNL1        0.0545
      2 C         139.0830  139.7175  167.7175 C.3     1  UNL1        0.0162
      3 C         140.2861  139.9324  168.5870 C.3     1  UNL1        0.0095
      4 C         140.7333  140.3018  169.9703 C.3     1  UNL1        0.0005
      5 C         142.2330  140.2800  169.9940 C.3     1  UNL1        0.0005
      6 C         142.7127  139.8970  168.6253 C.3     1  UNL1        0.0087
      7 C         141.5095  139.6822  167.7558 C.3     1  UNL1        0.0704
      8 C         141.0623  139.3127  166.3725 C.3     1  UNL1        0.0243
      9 C         142.7327  139.4320  166.9245 C.2     1  UNL1        0.2250
     10 O         143.5909  138.2318  167.1952 O.2     1  UNL1       -0.2749
     11 N         143.0979  140.3819  165.8225 N.am    1  UNL1       -0.2751
     12 C         144.3211  140.1318  164.9913 C.3     1  UNL1        0.0984
     13 C         144.6862  141.0817  163.8894 C.3     1  UNL1        0.0476
     14 C         143.8281  142.2818  163.6187 C.ar    1  UNL1       -0.0226
     15 C         144.1933  143.2318  162.5167 C.ar    1  UNL1       -0.0014
     16 C         143.3351  144.4320  162.2461 C.ar    1  UNL1        0.0368
     17 C         142.1118  144.6821  163.0774 C.ar    1  UNL1        0.1465
     18 C         141.7467  143.7322  164.1793 C.ar    1  UNL1        0.0343
     19 C         142.6048  142.5320  164.4500 C.ar    1  UNL1       -0.0032
     20 C         142.2397  141.5821  165.5519 C.3     1  UNL1        0.1199
     21 O         141.2537  145.8822  162.8067 O.3     1  UNL1       -0.4045
     22 C         139.8074  145.7051  162.4501 C.3     1  UNL1        0.5753
     23 F         138.3613  145.5279  162.0936 F       1  UNL1       -0.1328
     24 F         139.4745  145.5062  163.8991 F       1  UNL1       -0.1328
     25 F         140.1403  145.9040  161.0011 F       1  UNL1       -0.1328
     26 N         138.6949  139.0274  165.1644 N.3     1  UNL1       -0.2975
     27 H         139.1881  138.3258  164.6121 H       1  UNL1        0.1232
     28 C         138.0347  139.8103  162.7767 C.3     1  UNL1        0.1591
     29 C         137.6401  140.9063  161.8317 C.3     1  UNL1        0.1729
     30 O         137.5111  142.3154  162.3294 O.3     1  UNL1       -0.3511
     31 C         137.7768  142.6286  163.7721 C.3     1  UNL1        0.1437
     32 C         138.1714  141.5326  164.7171 C.3     1  UNL1        0.0503
     33 C         138.3003  140.1234  164.2194 C.3     1  UNL1        0.0865
     34 C         139.1772  138.0680  161.2245 C.3     1  UNL1        0.1742
     35 O         138.1637  138.4012  162.2790 O.3     1  UNL1       -0.3496
@<TRIPOS>BOND
     1    34    35    1
     2    35    28    1
     3    28    29    1
     4    29    30    1
     5    30    31    1
     6    31    32    1
     7    32    33    1
     8    33    26    1
     9     1    26    1
    10     1     2    1
    11     3     2    1
    12     3     4    1
    13     4     5    1
    14     5     6    1
    15     6     7    1
    16     7     9    1
    17     9    10    2
    18     9    11   am
    19    11    12    1
    20    12    13    1
    21    13    14    1
    22    14    15   ar
    23    15    16   ar
    24    16    17   ar
    25    17    21    1
    26    21    22    1
    27    22    23    1
    28    22    24    1
    29    22    25    1
    30    17    18   ar
    31    18    19   ar
    32    19    20    1
    33     7     8    1
    34    33    28    1
    35     8     1    1
    36     7     3    1
    37    20    11    1
    38    19    14   ar
    39    26    27    1
@<TRIPOS>MOLECULE
*****
 35 39 0 0 0
SMALL
GASTEIGER

@<TRIPOS>ATOM
      1 C         142.5080  143.7915  163.2977 C.3     1  UNL1        0.0545
      2 C         143.8822  143.8896  163.8909 C.3     1  UNL1        0.0162
      3 C         144.4954  142.5208  163.8688 C.3     1  UNL1        0.0095
      4 C         145.7237  141.7355  164.2217 C.3     1  UNL1        0.0005
      5 C         145.4876  140.3061  163.8331 C.3     1  UNL1        0.0005
      6 C         144.1133  140.2080  163.2400 C.3     1  UNL1        0.0087
      7 C         143.5001  141.5767  163.2620 C.3     1  UNL1        0.0704
      8 C         142.2719  142.3620  162.9091 C.3     1  UNL1        0.0243
      9 C         142.5049  140.6327  162.6552 C.2     1  UNL1        0.2250
     10 O         142.6163  140.2536  161.2082 O.2     1  UNL1       -0.2749
     11 N         141.3981  140.0677  163.4955 N.am    1  UNL1       -0.2751
     12 C         140.4028  139.1237  162.8887 C.3     1  UNL1        0.0984
     13 C         139.2962  138.5587  163.7290 C.3     1  UNL1        0.0476
     14 C         139.1848  138.9378  165.1760 C.ar    1  UNL1       -0.0226
     15 C         138.0780  138.3728  166.0163 C.ar    1  UNL1       -0.0014
     16 C         137.9667  138.7519  167.4633 C.ar    1  UNL1        0.0368
     17 C         138.9620  139.6960  168.0701 C.ar    1  UNL1        0.1465
     18 C         140.0687  140.2609  167.2298 C.ar    1  UNL1        0.0343
     19 C         140.1801  139.8818  165.7828 C.ar    1  UNL1       -0.0032
     20 C         141.2867  140.4468  164.9425 C.3     1  UNL1        0.1199
     21 O         138.8506  140.0750  169.5171 O.3     1  UNL1       -0.4045
     22 C         140.0086  140.7271  170.2129 C.3     1  UNL1        0.5753
     23 F         141.1665  141.3791  170.9086 F       1  UNL1       -0.1328
     24 F         139.3234  142.0572  170.1066 F       1  UNL1       -0.1328
     25 F         140.6937  139.3970  170.3192 F       1  UNL1       -0.1328
     26 N         141.5398  144.9239  163.1237 N.3     1  UNL1       -0.2975
     27 H         141.9164  145.7159  163.6447 H       1  UNL1        0.1232
     28 C         139.0416  144.5314  162.5283 C.3     1  UNL1        0.1591
     29 C         137.6135  144.3700  162.9580 C.3     1  UNL1        0.1729
     30 O         137.2557  144.4396  164.4130 O.3     1  UNL1       -0.3511
     31 C         138.3260  144.6707  165.4384 C.3     1  UNL1        0.1437
     32 C         139.7540  144.8321  165.0086 C.3     1  UNL1        0.0503
     33 C         140.1118  144.7625  163.5535 C.3     1  UNL1        0.0865
     34 C         139.5579  143.1293  160.4028 C.3     1  UNL1        0.1742
     35 O         139.3994  144.4618  161.0733 O.3     1  UNL1       -0.3496
@<TRIPOS>BOND
     1    34    35    1
     2    35    28    1
     3    28    29    1
     4    29    30    1
     5    30    31    1
     6    31    32    1
     7    32    33    1
     8    33    26    1
     9     1    26    1
    10     1     2    1
    11     3     2    1
    12     3     4    1
    13     4     5    1
    14     5     6    1
    15     6     7    1
    16     7     9    1
    17     9    10    2
    18     9    11   am
    19    11    12    1
    20    12    13    1
    21    13    14    1
    22    14    15   ar
    23    15    16   ar
    24    16    17   ar
    25    17    21    1
    26    21    22    1
    27    22    23    1
    28    22    24    1
    29    22    25    1
    30    17    18   ar
    31    18    19   ar
    32    19    20    1
    33     7     8    1
    34    33    28    1
    35     8     1    1
    36     7     3    1
    37    20    11    1
    38    19    14   ar
    39    26    27    1
@<TRIPOS>MOLECULE
*****
 35 39 0 0 0
SMALL
GASTEIGER

@<TRIPOS>ATOM
      1 C         140.4495  141.8711  160.8519 C.3     1  UNL1        0.0545
      2 C         138.9702  141.7303  160.6469 C.3     1  UNL1        0.0162
      3 C         138.5697  140.3544  161.0903 C.3     1  UNL1        0.0095
      4 C         137.4080  139.4170  161.2376 C.3     1  UNL1        0.0005
      5 C         137.9217  138.1282  161.8077 C.3     1  UNL1        0.0005
      6 C         139.4009  138.2690  162.0127 C.3     1  UNL1        0.0087
      7 C         139.8015  139.6448  161.5693 C.3     1  UNL1        0.0704
      8 C         140.9632  140.5822  161.4220 C.3     1  UNL1        0.0243
      9 C         141.0332  138.9354  162.0484 C.2     1  UNL1        0.2250
     10 O         141.8395  138.1053  161.0941 O.2     1  UNL1       -0.2749
     11 N         141.4586  139.0560  163.4818 N.am    1  UNL1       -0.2751
     12 C         142.6903  138.3465  163.9608 C.3     1  UNL1        0.0984
     13 C         143.1156  138.4671  165.3941 C.3     1  UNL1        0.0476
     14 C         142.3092  139.2972  166.3484 C.ar    1  UNL1       -0.0226
     15 C         142.7346  139.4179  167.7818 C.ar    1  UNL1       -0.0014
     16 C         141.9283  140.2480  168.7361 C.ar    1  UNL1        0.0368
     17 C         140.6965  140.9575  168.2570 C.ar    1  UNL1        0.1465
     18 C         140.2712  140.8368  166.8237 C.ar    1  UNL1        0.0343
     19 C         141.0775  140.0067  165.8694 C.ar    1  UNL1       -0.0032
     20 C         140.6522  139.8861  164.4361 C.3     1  UNL1        0.1199
     21 O         139.8902  141.7876  169.2113 O.3     1  UNL1       -0.4045
     22 C         140.3956  143.1303  169.6493 C.3     1  UNL1        0.5753
     23 F         140.9010  144.4729  170.0874 F       1  UNL1       -0.1328
     24 F         140.7627  142.5561  170.9856 F       1  UNL1       -0.1328
     25 F         140.0285  143.7044  168.3131 F       1  UNL1       -0.1328
     26 N         141.2708  143.0872  160.5413 N.3     1  UNL1       -0.2975
     27 H         141.8911  142.8350  159.7718 H       1  UNL1        0.1232
     28 C         141.5306  144.6650  162.5890 C.3     1  UNL1        0.1591
     29 C         142.3893  145.2818  163.6530 C.3     1  UNL1        0.1729
     30 O         143.8471  144.9376  163.7334 O.3     1  UNL1       -0.3511
     31 C         144.4461  143.9765  162.7497 C.3     1  UNL1        0.1437
     32 C         143.5874  143.3597  161.6856 C.3     1  UNL1        0.0503
     33 C         142.1296  143.7040  161.6053 C.3     1  UNL1        0.0865
     34 C         139.6335  146.2485  161.7866 C.3     1  UNL1        0.1742
     35 O         140.0729  145.0092  162.5086 O.3     1  UNL1       -0.3496
@<TRIPOS>BOND
     1    34    35    1
     2    35    28    1
     3    28    29    1
     4    29    30    1
     5    30    31    1
     6    31    32    1
     7    32    33    1
     8    33    26    1
     9     1    26    1
    10     1     2    1
    11     3     2    1
    12     3     4    1
    13     4     5    1
    14     5     6    1
    15     6     7    1
    16     7     9    1
    17     9    10    2
    18     9    11   am
    19    11    12    1
    20    12    13    1
    21    13    14    1
    22    14    15   ar
    23    15    16   ar
    24    16    17   ar
    25    17    21    1
    26    21    22    1
    27    22    23    1
    28    22    24    1
    29    22    25    1
    30    17    18   ar
    31    18    19   ar
    32    19    20    1
    33     7     8    1
    34    33    28    1
    35     8     1    1
    36     7     3    1
    37    20    11    1
    38    19    14   ar
    39    26    27    1
@<TRIPOS>MOLECULE
*****
 35 39 0 0 0
SMALL
GASTEIGER

@<TRIPOS>ATOM
      1 C         140.9301  141.3943  160.3359 C.3     1  UNL1        0.0545
      2 C         142.4132  141.3375  160.1186 C.3     1  UNL1        0.0162
      3 C         142.9194  140.0549  160.7090 C.3     1  UNL1        0.0095
      4 C         144.1488  139.2270  160.9395 C.3     1  UNL1        0.0005
      5 C         143.7384  137.9794  161.6643 C.3     1  UNL1        0.0005
      6 C         142.2553  138.0363  161.8817 C.3     1  UNL1        0.0087
      7 C         141.7491  139.3189  161.2913 C.3     1  UNL1        0.0704
      8 C         140.5197  140.1468  161.0607 C.3     1  UNL1        0.0243
      9 C         140.5789  138.5831  161.8735 C.2     1  UNL1        0.2250
     10 O         139.8111  137.6084  161.0306 O.2     1  UNL1       -0.2749
     11 N         140.1764  138.8219  163.2987 N.am    1  UNL1       -0.2751
     12 C         139.0062  138.0860  163.8809 C.3     1  UNL1        0.0984
     13 C         138.6037  138.3249  165.3060 C.3     1  UNL1        0.0476
     14 C         139.3715  139.2996  166.1488 C.ar    1  UNL1       -0.0226
     15 C         138.9691  139.5384  167.5740 C.ar    1  UNL1       -0.0014
     16 C         139.7369  140.5132  168.4169 C.ar    1  UNL1        0.0368
     17 C         140.9071  141.2490  167.8346 C.ar    1  UNL1        0.1465
     18 C         141.3096  141.0102  166.4095 C.ar    1  UNL1        0.0343
     19 C         140.5418  140.0355  165.5666 C.ar    1  UNL1       -0.0032
     20 C         140.9442  139.7966  164.1415 C.3     1  UNL1        0.1199
     21 O         141.6749  142.2237  168.6775 O.3     1  UNL1       -0.4045
     22 C         140.9574  143.3444  169.3698 C.3     1  UNL1        0.5753
     23 F         140.2399  144.4650  170.0621 F       1  UNL1       -0.1328
     24 F         140.1331  143.5773  168.1385 F       1  UNL1       -0.1328
     25 F         141.7817  143.1115  170.6012 F       1  UNL1       -0.1328
     26 N         140.0176  142.5039  159.9043 N.3     1  UNL1       -0.2975
     27 H         140.4737  142.9726  159.1216 H       1  UNL1        0.1232
     28 C         138.4933  143.3365  161.8365 C.3     1  UNL1        0.1591
     29 C         138.0997  144.4060  162.8118 C.3     1  UNL1        0.1729
     30 O         138.8365  145.7124  162.8302 O.3     1  UNL1       -0.3511
     31 C         139.9672  145.9493  161.8733 C.3     1  UNL1        0.1437
     32 C         140.3609  144.8798  160.8980 C.3     1  UNL1        0.0503
     33 C         139.6239  143.5734  160.8796 C.3     1  UNL1        0.0865
     34 C         137.3093  141.4031  163.1053 C.3     1  UNL1        0.1742
     35 O         137.7565  142.0302  161.8181 O.3     1  UNL1       -0.3496
@<TRIPOS>BOND
     1    34    35    1
     2    35    28    1
     3    28    29    1
     4    29    30    1
     5    30    31    1
     6    31    32    1
     7    32    33    1
     8    33    26    1
     9     1    26    1
    10     1     2    1
    11     3     2    1
    12     3     4    1
    13     4     5    1
    14     5     6    1
    15     6     7    1
    16     7     9    1
    17     9    10    2
    18     9    11   am
    19    11    12    1
    20    12    13    1
    21    13    14    1
    22    14    15   ar
    23    15    16   ar
    24    16    17   ar
    25    17    21    1
    26    21    22    1
    27    22    23    1
    28    22    24    1
    29    22    25    1
    30    17    18   ar
    31    18    19   ar
    32    19    20    1
    33     7     8    1
    34    33    28    1
    35     8     1    1
    36     7     3    1
    37    20    11    1
    38    19    14   ar
    39    26    27    1
@<TRIPOS>MOLECULE
*****
 35 39 0 0 0
SMALL
GASTEIGER

@<TRIPOS>ATOM
      1 C         143.4741  142.0330  166.4155 C.3     1  UNL1        0.0545
      2 C         143.2284  142.5315  167.8087 C.3     1  UNL1        0.0162
      3 C         142.8916  141.3510  168.6707 C.3     1  UNL1        0.0095
      4 C         142.5317  140.9295  170.0645 C.3     1  UNL1        0.0005
      5 C         142.3467  139.4409  170.0654 C.3     1  UNL1        0.0005
      6 C         142.5924  138.9424  168.6722 C.3     1  UNL1        0.0087
      7 C         142.9292  140.1229  167.8102 C.3     1  UNL1        0.0704
      8 C         143.2891  140.5444  166.4164 C.3     1  UNL1        0.0243
      9 C         142.9667  138.8949  166.9497 C.2     1  UNL1        0.2250
     10 O         143.9838  137.8245  167.2141 O.2     1  UNL1       -0.2749
     11 N         141.9871  138.7371  165.8247 N.am    1  UNL1       -0.2751
     12 C         142.0246  137.5091  164.9642 C.3     1  UNL1        0.0984
     13 C         141.0451  137.3514  163.8392 C.3     1  UNL1        0.0476
     14 C         140.0280  138.4218  163.5748 C.ar    1  UNL1       -0.0226
     15 C         139.0484  138.2640  162.4497 C.ar    1  UNL1       -0.0014
     16 C         138.0313  139.3344  162.1853 C.ar    1  UNL1        0.0368
     17 C         137.9938  140.5624  163.0459 C.ar    1  UNL1        0.1465
     18 C         138.9734  140.7201  164.1708 C.ar    1  UNL1        0.0343
     19 C         139.9904  139.6498  164.4353 C.ar    1  UNL1       -0.0032
     20 C         140.9700  139.8075  165.5602 C.3     1  UNL1        0.1199
     21 O         136.9767  141.6328  162.7815 O.3     1  UNL1       -0.4045
     22 C         137.3931  143.0737  162.7577 C.3     1  UNL1        0.5753
     23 F         137.8095  144.5145  162.7340 F       1  UNL1       -0.1328
     24 F         137.0989  143.1828  164.2245 F       1  UNL1       -0.1328
     25 F         137.6874  142.9645  161.2910 F       1  UNL1       -0.1328
     26 N         143.8404  142.8752  165.2294 N.3     1  UNL1       -0.2975
     27 H         144.1124  143.7896  165.5904 H       1  UNL1        0.1232
     28 C         142.6104  142.0847  163.0818 C.3     1  UNL1        0.1591
     29 C         141.6045  142.3294  161.9963 C.3     1  UNL1        0.1729
     30 O         140.8226  143.6093  161.9730 O.3     1  UNL1       -0.3511
     31 C         141.0466  144.6445  163.0352 C.3     1  UNL1        0.1437
     32 C         142.0526  144.3998  164.1207 C.3     1  UNL1        0.0503
     33 C         142.8345  143.1199  164.1440 C.3     1  UNL1        0.0865
     34 C         144.7255  140.7279  162.4219 C.3     1  UNL1        0.1742
     35 O         143.3923  140.8049  163.1051 O.3     1  UNL1       -0.3496
@<TRIPOS>BOND
     1    34    35    1
     2    35    28    1
     3    28    29    1
     4    29    30    1
     5    30    31    1
     6    31    32    1
     7    32    33    1
     8    33    26    1
     9     1    26    1
    10     1     2    1
    11     3     2    1
    12     3     4    1
    13     4     5    1
    14     5     6    1
    15     6     7    1
    16     7     9    1
    17     9    10    2
    18     9    11   am
    19    11    12    1
    20    12    13    1
    21    13    14    1
    22    14    15   ar
    23    15    16   ar
    24    16    17   ar
    25    17    21    1
    26    21    22    1
    27    22    23    1
    28    22    24    1
    29    22    25    1
    30    17    18   ar
    31    18    19   ar
    32    19    20    1
    33     7     8    1
    34    33    28    1
    35     8     1    1
    36     7     3    1
    37    20    11    1
    38    19    14   ar
    39    26    27    1
@<TRIPOS>MOLECULE
*****
 35 39 0 0 0
SMALL
GASTEIGER

@<TRIPOS>ATOM
      1 C         140.5946  137.5802  164.0659 C.3     1  UNL1        0.0545
      2 C         139.1879  137.3107  164.5116 C.3     1  UNL1        0.0162
      3 C         138.9076  138.1718  165.7074 C.3     1  UNL1        0.0095
      4 C         137.8650  138.5375  166.7219 C.3     1  UNL1        0.0005
      5 C         138.4540  139.5652  167.6421 C.3     1  UNL1        0.0005
      6 C         139.8606  139.8347  167.1964 C.3     1  UNL1        0.0087
      7 C         140.1410  138.9736  166.0007 C.3     1  UNL1        0.0704
      8 C         141.1836  138.6079  164.9862 C.3     1  UNL1        0.0243
      9 C         141.3743  139.7753  166.2939 C.2     1  UNL1        0.2250
     10 O         142.2857  139.3671  167.4132 O.2     1  UNL1       -0.2749
     11 N         141.6964  140.9852  165.4678 N.am    1  UNL1       -0.2751
     12 C         142.9298  141.7869  165.7611 C.3     1  UNL1        0.0984
     13 C         143.2518  142.9968  164.9350 C.3     1  UNL1        0.0476
     14 C         142.3405  143.4050  163.8157 C.ar    1  UNL1       -0.0226
     15 C         142.6626  144.6149  162.9896 C.ar    1  UNL1       -0.0014
     16 C         141.7513  145.0231  161.8702 C.ar    1  UNL1        0.0368
     17 C         140.5179  144.2213  161.5770 C.ar    1  UNL1        0.1465
     18 C         140.1958  143.0114  162.4031 C.ar    1  UNL1        0.0343
     19 C         141.1071  142.6033  163.5224 C.ar    1  UNL1       -0.0032
     20 C         140.7851  141.3934  164.3485 C.3     1  UNL1        0.1199
     21 O         139.6065  144.6295  160.4577 O.3     1  UNL1       -0.4045
     22 C         140.0663  144.5104  159.0348 C.3     1  UNL1        0.5753
     23 F         140.5261  144.3913  157.6120 F       1  UNL1       -0.1328
     24 F         139.9607  145.9982  158.8762 F       1  UNL1       -0.1328
     25 F         140.1719  143.0225  159.1934 F       1  UNL1       -0.1328
     26 N         141.2902  136.9352  162.9039 N.3     1  UNL1       -0.2975
     27 H         142.0355  136.3565  163.2911 H       1  UNL1        0.1232
     28 C         141.0542  138.3950  160.7677 C.3     1  UNL1        0.1591
     29 C         141.6765  139.2453  159.7001 C.3     1  UNL1        0.1729
     30 O         143.1570  139.4861  159.7011 O.3     1  UNL1       -0.3511
     31 C         144.0153  138.8765  160.7696 C.3     1  UNL1        0.1437
     32 C         143.3931  138.0262  161.8372 C.3     1  UNL1        0.0503
     33 C         141.9124  137.7855  161.8363 C.3     1  UNL1        0.0865
     34 C         138.6416  139.2112  161.2809 C.3     1  UNL1        0.1742
     35 O         139.5737  138.1543  160.7668 O.3     1  UNL1       -0.3496
@<TRIPOS>BOND
     1    34    35    1
     2    35    28    1
     3    28    29    1
     4    29    30    1
     5    30    31    1
     6    31    32    1
     7    32    33    1
     8    33    26    1
     9     1    26    1
    10     1     2    1
    11     3     2    1
    12     3     4    1
    13     4     5    1
    14     5     6    1
    15     6     7    1
    16     7     9    1
    17     9    10    2
    18     9    11   am
    19    11    12    1
    20    12    13    1
    21    13    14    1
    22    14    15   ar
    23    15    16   ar
    24    16    17   ar
    25    17    21    1
    26    21    22    1
    27    22    23    1
    28    22    24    1
    29    22    25    1
    30    17    18   ar
    31    18    19   ar
    32    19    20    1
    33     7     8    1
    34    33    28    1
    35     8     1    1
    36     7     3    1
    37    20    11    1
    38    19    14   ar
    39    26    27    1
@<TRIPOS>MOLECULE
*****
 35 39 0 0 0
SMALL
GASTEIGER

@<TRIPOS>ATOM
      1 C         140.9997  141.3912  160.3706 C.3     1  UNL1        0.0545
      2 C         142.4839  141.3105  160.1693 C.3     1  UNL1        0.0162
      3 C         142.9620  140.0169  160.7593 C.3     1  UNL1        0.0095
      4 C         144.1747  139.1675  160.9995 C.3     1  UNL1        0.0005
      5 C         143.7355  137.9238  161.7140 C.3     1  UNL1        0.0005
      6 C         142.2513  138.0046  161.9153 C.3     1  UNL1        0.0087
      7 C         141.7732  139.2982  161.3253 C.3     1  UNL1        0.0704
      8 C         140.5605  140.1476  161.0850 C.3     1  UNL1        0.0243
      9 C         140.5844  138.5795  161.8913 C.2     1  UNL1        0.2250
     10 O         139.8085  137.6232  161.0349 O.2     1  UNL1       -0.2749
     11 N         140.1715  138.8173  163.3136 N.am    1  UNL1       -0.2751
     12 C         138.9828  138.0986  163.8796 C.3     1  UNL1        0.0984
     13 C         138.5699  138.3364  165.3019 C.3     1  UNL1        0.0476
     14 C         139.3458  139.2928  166.1582 C.ar    1  UNL1       -0.0226
     15 C         138.9329  139.5305  167.5806 C.ar    1  UNL1       -0.0014
     16 C         139.7088  140.4869  168.4369 C.ar    1  UNL1        0.0368
     17 C         140.8976  141.2055  167.8709 C.ar    1  UNL1        0.1465
     18 C         141.3105  140.9678  166.4486 C.ar    1  UNL1        0.0343
     19 C         140.5346  140.0114  165.5923 C.ar    1  UNL1       -0.0032
     20 C         140.9474  139.7736  164.1700 C.3     1  UNL1        0.1199
     21 O         141.6735  142.1619  168.7272 O.3     1  UNL1       -0.4045
     22 C         140.9709  143.2999  169.4066 C.3     1  UNL1        0.5753
     23 F         140.2684  144.4378  170.0859 F       1  UNL1       -0.1328
     24 F         140.1989  143.5734  168.1500 F       1  UNL1       -0.1328
     25 F         141.7430  143.0264  170.6632 F       1  UNL1       -0.1328
     26 N         140.1107  142.5179  159.9341 N.3     1  UNL1       -0.2975
     27 H         140.5804  142.9786  159.1546 H       1  UNL1        0.1232
     28 C         140.4777  144.8946  160.9171 C.3     1  UNL1        0.1591
     29 C         140.0978  145.9706  161.8908 C.3     1  UNL1        0.1729
     30 O         138.9710  145.7458  162.8549 O.3     1  UNL1       -0.3511
     31 C         138.2240  144.4450  162.8455 C.3     1  UNL1        0.1437
     32 C         138.6039  143.3691  161.8719 C.3     1  UNL1        0.0503
     33 C         139.7308  143.5939  160.9077 C.3     1  UNL1        0.0865
     34 C         141.3157  145.5897  158.5581 C.3     1  UNL1        0.1742
     35 O         141.6046  145.1194  159.9530 O.3     1  UNL1       -0.3496
@<TRIPOS>BOND
     1    34    35    1
     2    35    28    1
     3    28    29    1
     4    29    30    1
     5    30    31    1
     6    31    32    1
     7    32    33    1
     8    33    26    1
     9     1    26    1
    10     1     2    1
    11     3     2    1
    12     3     4    1
    13     4     5    1
    14     5     6    1
    15     6     7    1
    16     7     9    1
    17     9    10    2
    18     9    11   am
    19    11    12    1
    20    12    13    1
    21    13    14    1
    22    14    15   ar
    23    15    16   ar
    24    16    17   ar
    25    17    21    1
    26    21    22    1
    27    22    23    1
    28    22    24    1
    29    22    25    1
    30    17    18   ar
    31    18    19   ar
    32    19    20    1
    33     7     8    1
    34    33    28    1
    35     8     1    1
    36     7     3    1
    37    20    11    1
    38    19    14   ar
    39    26    27    1
@<TRIPOS>MOLECULE
*****
 35 39 0 0 0
SMALL
GASTEIGER

@<TRIPOS>ATOM
      1 C         142.0015  142.7237  160.8621 C.3     1  UNL1        0.0545
      2 C         141.9808  144.2130  161.0400 C.3     1  UNL1        0.0162
      3 C         140.6911  144.5817  161.7112 C.3     1  UNL1        0.0095
      4 C         139.8811  145.7300  162.2359 C.3     1  UNL1        0.0005
      5 C         138.6042  145.1784  162.7972 C.3     1  UNL1        0.0005
      6 C         138.6249  143.6891  162.6194 C.3     1  UNL1        0.0087
      7 C         139.9146  143.3204  161.9482 C.3     1  UNL1        0.0704
      8 C         140.7246  142.1720  161.4235 C.3     1  UNL1        0.0243
      9 C         139.1383  142.0590  162.1852 C.2     1  UNL1        0.2250
     10 O         138.3878  141.4169  161.0562 O.2     1  UNL1       -0.2749
     11 N         139.1123  141.4397  163.5512 N.am    1  UNL1       -0.2751
     12 C         138.3359  140.1784  163.7882 C.3     1  UNL1        0.0984
     13 C         138.3100  139.5591  165.1541 C.3     1  UNL1        0.0476
     14 C         139.0604  140.2013  166.2831 C.ar    1  UNL1       -0.0226
     15 C         139.0344  139.5820  167.6491 C.ar    1  UNL1       -0.0014
     16 C         139.7849  140.2241  168.7780 C.ar    1  UNL1        0.0368
     17 C         140.5613  141.4855  168.5410 C.ar    1  UNL1        0.1465
     18 C         140.5872  142.1047  167.1750 C.ar    1  UNL1        0.0343
     19 C         139.8368  141.4626  166.0461 C.ar    1  UNL1       -0.0032
     20 C         139.8627  142.0818  164.6801 C.3     1  UNL1        0.1199
     21 O         141.3117  142.1276  169.6699 O.3     1  UNL1       -0.4045
     22 C         142.7939  142.3328  169.5645 C.3     1  UNL1        0.5753
     23 F         144.2760  142.5379  169.4590 F       1  UNL1       -0.1328
     24 F         142.9269  141.0125  168.8652 F       1  UNL1       -0.1328
     25 F         142.6609  143.6531  170.2638 F       1  UNL1       -0.1328
     26 N         143.1054  141.9261  160.2334 N.3     1  UNL1       -0.2975
     27 H         142.9100  141.8904  159.2329 H       1  UNL1        0.1232
     28 C         144.1021  140.2504  161.9506 C.3     1  UNL1        0.1591
     29 C         144.3538  138.8395  162.3931 C.3     1  UNL1        0.1729
     30 O         143.8604  137.6932  161.5610 O.3     1  UNL1       -0.3511
     31 C         143.1153  137.9578  160.2863 C.3     1  UNL1        0.1437
     32 C         142.8637  139.3687  159.8437 C.3     1  UNL1        0.0503
     33 C         143.3571  140.5151  160.6759 C.3     1  UNL1        0.0865
     34 C         145.5995  141.1561  163.8710 C.3     1  UNL1        0.1742
     35 O         144.5955  141.3968  162.7827 O.3     1  UNL1       -0.3496
@<TRIPOS>BOND
     1    34    35    1
     2    35    28    1
     3    28    29    1
     4    29    30    1
     5    30    31    1
     6    31    32    1
     7    32    33    1
     8    33    26    1
     9     1    26    1
    10     1     2    1
    11     3     2    1
    12     3     4    1
    13     4     5    1
    14     5     6    1
    15     6     7    1
    16     7     9    1
    17     9    10    2
    18     9    11   am
    19    11    12    1
    20    12    13    1
    21    13    14    1
    22    14    15   ar
    23    15    16   ar
    24    16    17   ar
    25    17    21    1
    26    21    22    1
    27    22    23    1
    28    22    24    1
    29    22    25    1
    30    17    18   ar
    31    18    19   ar
    32    19    20    1
    33     7     8    1
    34    33    28    1
    35     8     1    1
    36     7     3    1
    37    20    11    1
    38    19    14   ar
    39    26    27    1
