@<TRIPOS>MOLECULE
*****
 29 30 0 0 0
SMALL
GASTEIGER

@<TRIPOS>ATOM
      1 S         139.3201  139.4949  165.3459 S.O2    1  UNL1        0.0156
      2 O         140.4947  138.6424  165.7245 O.2     1  UNL1       -0.1682
      3 O         138.1454  140.3475  164.9673 O.2     1  UNL1       -0.1682
      4 C         140.0640  138.2280  163.2032 C.2     1  UNL1        0.0257
      5 C         139.7940  139.5160  163.9229 C.2     1  UNL1        0.1233
      6 C         141.4858  138.2913  158.9341 C.ar    1  UNL1        0.1448
      7 C         142.4764  138.1592  160.0527 C.ar    1  UNL1        0.0740
      8 C         142.0025  138.1381  161.4757 C.ar    1  UNL1        0.1446
      9 C         140.5379  138.2491  161.7801 C.ar    1  UNL1        0.0694
     10 C         139.5473  138.3812  160.6616 C.ar    1  UNL1        0.1446
     11 C         140.0213  138.4023  159.2386 C.ar    1  UNL1        0.0740
     12 C         142.2958  137.0279  156.8134 C.3     1  UNL1        0.2525
     13 O         141.9597  138.3124  157.5111 O.3     1  UNL1       -0.4712
     14 O         142.9932  138.0060  162.5942 O.3     1  UNL1       -0.4712
     15 C         144.0972  139.0107  162.7409 C.3     1  UNL1        0.2525
     16 O         138.0827  138.4923  160.9661 O.3     1  UNL1       -0.4712
     17 C         137.4075  139.8310  160.9249 C.3     1  UNL1        0.2525
     18 C         138.8461  139.4738  166.7689 C.3     1  UNL1        0.2013
     19 C         139.5275  140.3250  167.7990 C.ar    1  UNL1        0.0848
     20 C         140.1382  141.6366  167.4034 C.ar    1  UNL1        0.0197
     21 C         140.8196  142.4878  168.4335 C.ar    1  UNL1        0.0410
     22 C         140.8902  142.0274  169.8594 C.ar    1  UNL1        0.1696
     23 C         140.2794  140.7158  170.2550 C.ar    1  UNL1        0.1593
     24 N         140.3500  140.2553  171.6808 N.pl3   1  UNL1       -0.3402
     25 N         139.5981  139.8645  169.2248 N.ar    1  UNL1       -0.2306
     26 H         140.7972  140.8140  172.3570 H       1  UNL1        0.1438
     27 H         139.9492  139.3944  171.9405 H       1  UNL1        0.1438
     28 O         141.5715  142.8786  170.8895 O.3     1  UNL1       -0.4686
     29 C         143.0131  143.2555  170.7167 C.3     1  UNL1        0.2526
@<TRIPOS>BOND
     1    12    13    1
     2    13     6    1
     3     6     7   ar
     4     7     8   ar
     5     8    14    1
     6    14    15    1
     7     8     9   ar
     8     9     4    1
     9     4     5    2
    10     5     1    1
    11     1     2    2
    12     1     3    2
    13     1    18    1
    14    18    19    1
    15    19    20   ar
    16    20    21   ar
    17    21    22   ar
    18    22    28    1
    19    28    29    1
    20    22    23   ar
    21    23    24    1
    22    23    25   ar
    23     9    10   ar
    24    10    16    1
    25    16    17    1
    26    10    11   ar
    27    11     6   ar
    28    25    19   ar
    29    24    26    1
    30    24    27    1
@<TRIPOS>MOLECULE
*****
 29 30 0 0 0
SMALL
GASTEIGER

@<TRIPOS>ATOM
      1 S         138.8438  138.5548  164.5315 S.O2    1  UNL1        0.0156
      2 O         138.1101  139.6150  163.7649 O.2     1  UNL1       -0.1682
      3 O         139.5775  137.4947  165.2981 O.2     1  UNL1       -0.1682
      4 C         140.3103  139.1601  162.4741 C.2     1  UNL1        0.0257
      5 C         139.5571  138.1422  163.2781 C.2     1  UNL1        0.1233
      6 C         142.4502  137.9221  158.7140 C.ar    1  UNL1        0.1448
      7 C         141.0512  138.4579  158.6390 C.ar    1  UNL1        0.0740
      8 C         140.3379  138.8705  159.8924 C.ar    1  UNL1        0.1446
      9 C         141.0236  138.7474  161.2207 C.ar    1  UNL1        0.0694
     10 C         142.4226  138.2116  161.2957 C.ar    1  UNL1        0.1446
     11 C         143.1359  137.7990  160.0424 C.ar    1  UNL1        0.0740
     12 C         142.7111  136.2950  156.7054 C.3     1  UNL1        0.2525
     13 O         143.1635  137.5094  157.4606 O.3     1  UNL1       -0.4712
     14 O         138.9388  139.4063  159.8173 O.3     1  UNL1       -0.4712
     15 C         138.7005  140.8233  159.3867 C.3     1  UNL1        0.2525
     16 O         143.1084  138.0885  162.6241 O.3     1  UNL1       -0.4712
     17 C         144.1463  139.0931  163.0284 C.3     1  UNL1        0.2525
     18 C         138.1305  138.9675  165.7849 C.3     1  UNL1        0.2013
     19 C         138.8496  139.7719  166.8268 C.ar    1  UNL1        0.0848
     20 C         139.6942  140.9428  166.4197 C.ar    1  UNL1        0.0197
     21 C         140.4133  141.7472  167.4617 C.ar    1  UNL1        0.0410
     22 C         140.2878  141.3808  168.9109 C.ar    1  UNL1        0.1696
     23 C         139.4433  140.2099  169.3180 C.ar    1  UNL1        0.1593
     24 N         139.3178  139.8434  170.7671 N.pl3   1  UNL1       -0.3402
     25 N         138.7241  139.4055  168.2759 N.ar    1  UNL1       -0.2306
     26 H         139.7897  140.3714  171.4510 H       1  UNL1        0.1438
     27 H         138.7635  139.0749  171.0343 H       1  UNL1        0.1438
     28 O         141.0069  142.1852  169.9529 O.3     1  UNL1       -0.4686
     29 C         142.3740  141.7700  170.4097 C.3     1  UNL1        0.2526
@<TRIPOS>BOND
     1    12    13    1
     2    13     6    1
     3     6     7   ar
     4     7     8   ar
     5     8    14    1
     6    14    15    1
     7     8     9   ar
     8     9     4    1
     9     4     5    2
    10     5     1    1
    11     1     2    2
    12     1     3    2
    13     1    18    1
    14    18    19    1
    15    19    20   ar
    16    20    21   ar
    17    21    22   ar
    18    22    28    1
    19    28    29    1
    20    22    23   ar
    21    23    24    1
    22    23    25   ar
    23     9    10   ar
    24    10    16    1
    25    16    17    1
    26    10    11   ar
    27    11     6   ar
    28    25    19   ar
    29    24    26    1
    30    24    27    1
@<TRIPOS>MOLECULE
*****
 29 30 0 0 0
SMALL
GASTEIGER

@<TRIPOS>ATOM
      1 S         142.3651  138.5445  158.9642 S.O2    1  UNL1        0.0156
      2 O         140.9137  138.2143  158.7786 O.2     1  UNL1       -0.1682
      3 O         143.8165  138.8747  159.1498 O.2     1  UNL1       -0.1682
      4 C         142.5767  138.0193  161.4998 C.2     1  UNL1        0.0257
      5 C         142.0986  138.9126  160.3937 C.2     1  UNL1        0.1233
      6 C         141.7771  139.1235  165.7884 C.ar    1  UNL1        0.1448
      7 C         143.0742  139.5121  165.1432 C.ar    1  UNL1        0.0740
      8 C         143.3408  139.1441  163.7137 C.ar    1  UNL1        0.1446
      9 C         142.3102  138.3874  162.9293 C.ar    1  UNL1        0.0694
     10 C         141.0131  137.9987  163.5745 C.ar    1  UNL1        0.1446
     11 C         140.7465  138.3667  165.0041 C.ar    1  UNL1        0.0740
     12 C         142.6375  139.5210  168.2074 C.3     1  UNL1        0.2525
     13 O         141.5106  139.4915  167.2179 O.3     1  UNL1       -0.4712
     14 O         144.6380  139.5329  163.0685 O.3     1  UNL1       -0.4712
     15 C         144.9468  140.9790  162.8170 C.3     1  UNL1        0.2525
     16 O         139.9824  137.2419  162.7902 O.3     1  UNL1       -0.4712
     17 C         138.7042  137.9149  162.3861 C.3     1  UNL1        0.2525
     18 C         142.6317  138.1765  157.5347 C.3     1  UNL1        0.2013
     19 C         142.5806  136.7394  157.1082 C.ar    1  UNL1        0.0848
     20 C         141.6866  136.3238  155.9777 C.ar    1  UNL1        0.0197
     21 C         141.6355  134.8867  155.5512 C.ar    1  UNL1        0.0410
     22 C         142.4785  133.8650  156.2552 C.ar    1  UNL1        0.1696
     23 C         143.3725  134.2805  157.3857 C.ar    1  UNL1        0.1593
     24 N         144.2154  133.2589  158.0898 N.pl3   1  UNL1       -0.3402
     25 N         143.4235  135.7177  157.8122 N.ar    1  UNL1       -0.2306
     26 H         144.1819  132.3156  157.8099 H       1  UNL1        0.1438
     27 H         144.8021  133.5316  158.8318 H       1  UNL1        0.1438
     28 O         142.4274  132.4278  155.8287 O.3     1  UNL1       -0.4686
     29 C         141.3102  131.9449  154.9520 C.3     1  UNL1        0.2526
@<TRIPOS>BOND
     1    12    13    1
     2    13     6    1
     3     6     7   ar
     4     7     8   ar
     5     8    14    1
     6    14    15    1
     7     8     9   ar
     8     9     4    1
     9     4     5    2
    10     5     1    1
    11     1     2    2
    12     1     3    2
    13     1    18    1
    14    18    19    1
    15    19    20   ar
    16    20    21   ar
    17    21    22   ar
    18    22    28    1
    19    28    29    1
    20    22    23   ar
    21    23    24    1
    22    23    25   ar
    23     9    10   ar
    24    10    16    1
    25    16    17    1
    26    10    11   ar
    27    11     6   ar
    28    25    19   ar
    29    24    26    1
    30    24    27    1
@<TRIPOS>MOLECULE
*****
 29 30 0 0 0
SMALL
GASTEIGER

@<TRIPOS>ATOM
      1 S         143.1149  139.2672  164.9451 S.O2    1  UNL1        0.0156
      2 O         142.3287  138.0769  164.4813 O.2     1  UNL1       -0.1682
      3 O         143.9011  140.4575  165.4089 O.2     1  UNL1       -0.1682
      4 C         144.3359  140.0817  162.8013 C.2     1  UNL1        0.0257
      5 C         143.0645  139.8403  163.5598 C.2     1  UNL1        0.1233
      6 C         144.1847  141.8008  158.6454 C.ar    1  UNL1        0.1448
      7 C         144.4245  142.7009  159.8211 C.ar    1  UNL1        0.0740
      8 C         144.4749  142.1279  161.2064 C.ar    1  UNL1        0.1446
      9 C         144.2855  140.6548  161.4160 C.ar    1  UNL1        0.0694
     10 C         144.0457  139.7547  160.2403 C.ar    1  UNL1        0.1446
     11 C         143.9953  140.3277  158.8550 C.ar    1  UNL1        0.0740
     12 C         145.0234  141.8198  156.1865 C.3     1  UNL1        0.2525
     13 O         144.1343  142.3738  157.2601 O.3     1  UNL1       -0.4712
     14 O         144.7148  143.0281  162.3821 O.3     1  UNL1       -0.4712
     15 C         143.8185  144.2073  162.6190 C.3     1  UNL1        0.2525
     16 O         143.8562  138.2815  160.4499 O.3     1  UNL1       -0.4712
     17 C         142.4729  137.7073  160.5314 C.3     1  UNL1        0.2525
     18 C         143.1653  138.6942  166.3304 C.3     1  UNL1        0.2013
     19 C         142.3734  139.3300  167.4343 C.ar    1  UNL1        0.0848
     20 C         140.9981  139.8623  167.1602 C.ar    1  UNL1        0.0197
     21 C         140.2062  140.4982  168.2641 C.ar    1  UNL1        0.0410
     22 C         140.7897  140.6017  169.6422 C.ar    1  UNL1        0.1696
     23 C         142.1650  140.0694  169.9162 C.ar    1  UNL1        0.1593
     24 N         142.7485  140.1729  171.2942 N.pl3   1  UNL1       -0.3402
     25 N         142.9569  139.4335  168.8123 N.ar    1  UNL1       -0.2306
     26 H         142.2288  140.5902  172.0188 H       1  UNL1        0.1438
     27 H         143.6511  139.8235  171.4741 H       1  UNL1        0.1438
     28 O         139.9978  141.2375  170.7461 O.3     1  UNL1       -0.4686
     29 C         139.7428  142.7156  170.7309 C.3     1  UNL1        0.2526
@<TRIPOS>BOND
     1    12    13    1
     2    13     6    1
     3     6     7   ar
     4     7     8   ar
     5     8    14    1
     6    14    15    1
     7     8     9   ar
     8     9     4    1
     9     4     5    2
    10     5     1    1
    11     1     2    2
    12     1     3    2
    13     1    18    1
    14    18    19    1
    15    19    20   ar
    16    20    21   ar
    17    21    22   ar
    18    22    28    1
    19    28    29    1
    20    22    23   ar
    21    23    24    1
    22    23    25   ar
    23     9    10   ar
    24    10    16    1
    25    16    17    1
    26    10    11   ar
    27    11     6   ar
    28    25    19   ar
    29    24    26    1
    30    24    27    1
@<TRIPOS>MOLECULE
*****
 29 30 0 0 0
SMALL
GASTEIGER

@<TRIPOS>ATOM
      1 S         142.3655  138.6183  159.0350 S.O2    1  UNL1        0.0156
      2 O         143.8208  138.9612  159.1550 O.2     1  UNL1       -0.1682
      3 O         140.9101  138.2755  158.9151 O.2     1  UNL1       -0.1682
      4 C         142.7836  138.0934  161.5449 C.2     1  UNL1        0.0257
      5 C         142.1668  138.9550  160.4832 C.2     1  UNL1        0.1233
      6 C         142.1876  139.1032  165.8894 C.ar    1  UNL1        0.1448
      7 C         141.1580  138.2923  165.1599 C.ar    1  UNL1        0.0740
      8 C         141.3567  137.9557  163.7117 C.ar    1  UNL1        0.1446
      9 C         142.5849  138.4300  162.9931 C.ar    1  UNL1        0.0694
     10 C         143.6145  139.2409  163.7227 C.ar    1  UNL1        0.1446
     11 C         143.4159  139.5775  165.1709 C.ar    1  UNL1        0.0740
     12 C         142.5354  140.7223  167.8913 C.3     1  UNL1        0.2525
     13 O         141.9890  139.4398  167.3376 O.3     1  UNL1       -0.4712
     14 O         140.3270  137.1448  162.9821 O.3     1  UNL1       -0.4712
     15 C         138.9100  137.6300  162.9006 C.3     1  UNL1        0.2525
     16 O         144.8428  139.7152  163.0041 O.3     1  UNL1       -0.4712
     17 C         145.1697  141.1785  162.9631 C.3     1  UNL1        0.2525
     18 C         142.5641  138.2817  157.5868 C.3     1  UNL1        0.2013
     19 C         142.5222  136.8515  157.1367 C.ar    1  UNL1        0.0848
     20 C         141.6438  136.4522  155.9882 C.ar    1  UNL1        0.0197
     21 C         141.6018  135.0220  155.5381 C.ar    1  UNL1        0.0410
     22 C         142.4383  133.9910  156.2364 C.ar    1  UNL1        0.1696
     23 C         143.3167  134.3904  157.3848 C.ar    1  UNL1        0.1593
     24 N         144.1531  133.3595  158.0831 N.pl3   1  UNL1       -0.3402
     25 N         143.3586  135.8207  157.8350 N.ar    1  UNL1       -0.2306
     26 H         144.1256  132.4208  157.7877 H       1  UNL1        0.1438
     27 H         144.7296  133.6216  158.8369 H       1  UNL1        0.1438
     28 O         142.3964  132.5608  155.7862 O.3     1  UNL1       -0.4686
     29 C         141.2309  132.0604  154.9854 C.3     1  UNL1        0.2526
@<TRIPOS>BOND
     1    12    13    1
     2    13     6    1
     3     6     7   ar
     4     7     8   ar
     5     8    14    1
     6    14    15    1
     7     8     9   ar
     8     9     4    1
     9     4     5    2
    10     5     1    1
    11     1     2    2
    12     1     3    2
    13     1    18    1
    14    18    19    1
    15    19    20   ar
    16    20    21   ar
    17    21    22   ar
    18    22    28    1
    19    28    29    1
    20    22    23   ar
    21    23    24    1
    22    23    25   ar
    23     9    10   ar
    24    10    16    1
    25    16    17    1
    26    10    11   ar
    27    11     6   ar
    28    25    19   ar
    29    24    26    1
    30    24    27    1
@<TRIPOS>MOLECULE
*****
 29 30 0 0 0
SMALL
GASTEIGER

@<TRIPOS>ATOM
      1 S         141.1342  144.9368  160.0408 S.O2    1  UNL1        0.0156
      2 O         142.4546  144.2594  159.8224 O.2     1  UNL1       -0.1682
      3 O         139.8139  145.6142  160.2591 O.2     1  UNL1       -0.1682
      4 C         141.4880  144.8457  162.6130 C.2     1  UNL1        0.0257
      5 C         140.9816  144.2179  161.3484 C.2     1  UNL1        0.1233
      6 C         141.0301  142.6889  166.5358 C.ar    1  UNL1        0.1448
      7 C         139.8648  143.4250  165.9442 C.ar    1  UNL1        0.0740
      8 C         140.0174  144.1439  164.6366 C.ar    1  UNL1        0.1446
      9 C         141.3353  144.1268  163.9206 C.ar    1  UNL1        0.0694
     10 C         142.5007  143.3906  164.5123 C.ar    1  UNL1        0.1446
     11 C         142.3481  142.6717  165.8199 C.ar    1  UNL1        0.0740
     12 C         140.8928  142.7413  169.1297 C.3     1  UNL1        0.2525
     13 O         140.8775  141.9699  167.8434 O.3     1  UNL1       -0.4712
     14 O         138.8520  144.8801  164.0450 O.3     1  UNL1       -0.4712
     15 C         137.8093  144.1329  163.2675 C.3     1  UNL1        0.2525
     16 O         143.8187  143.3734  163.7963 O.3     1  UNL1       -0.4712
     17 C         144.8655  142.3685  164.1761 C.3     1  UNL1        0.2525
     18 C         141.2868  145.6558  158.7332 C.3     1  UNL1        0.2013
     19 C         140.3313  145.3807  157.6101 C.ar    1  UNL1        0.0848
     20 C         139.9197  143.9712  157.3037 C.ar    1  UNL1        0.0197
     21 C         138.9642  143.6962  156.1807 C.ar    1  UNL1        0.0410
     22 C         138.4203  144.8308  155.3639 C.ar    1  UNL1        0.1696
     23 C         138.8319  146.2403  155.6702 C.ar    1  UNL1        0.1593
     24 N         138.2881  147.3748  154.8535 N.pl3   1  UNL1       -0.3402
     25 N         139.7875  146.5152  156.7934 N.ar    1  UNL1       -0.2306
     26 H         137.6609  147.1943  154.1164 H       1  UNL1        0.1438
     27 H         138.5582  148.2999  155.0546 H       1  UNL1        0.1438
     28 O         137.4648  144.5557  154.2408 O.3     1  UNL1       -0.4686
     29 C         136.5742  143.3499  154.2921 C.3     1  UNL1        0.2526
@<TRIPOS>BOND
     1    12    13    1
     2    13     6    1
     3     6     7   ar
     4     7     8   ar
     5     8    14    1
     6    14    15    1
     7     8     9   ar
     8     9     4    1
     9     4     5    2
    10     5     1    1
    11     1     2    2
    12     1     3    2
    13     1    18    1
    14    18    19    1
    15    19    20   ar
    16    20    21   ar
    17    21    22   ar
    18    22    28    1
    19    28    29    1
    20    22    23   ar
    21    23    24    1
    22    23    25   ar
    23     9    10   ar
    24    10    16    1
    25    16    17    1
    26    10    11   ar
    27    11     6   ar
    28    25    19   ar
    29    24    26    1
    30    24    27    1
@<TRIPOS>MOLECULE
*****
 29 30 0 0 0
SMALL
GASTEIGER

@<TRIPOS>ATOM
      1 S         141.7088  137.8548  157.3926 S.O2    1  UNL1        0.0156
      2 O         140.3470  137.6059  156.8149 O.2     1  UNL1       -0.1682
      3 O         143.0705  138.1036  157.9702 O.2     1  UNL1       -0.1682
      4 C         139.8899  138.0287  159.2396 C.2     1  UNL1        0.0257
      5 C         141.0872  138.5978  158.5378 C.2     1  UNL1        0.1233
      6 C         138.0252  140.2579  162.6752 C.ar    1  UNL1        0.1448
      7 C         139.0538  139.1984  162.9386 C.ar    1  UNL1        0.0740
      8 C         139.6754  138.4553  161.7934 C.ar    1  UNL1        0.1446
      9 C         139.2684  138.7718  160.3848 C.ar    1  UNL1        0.0694
     10 C         138.2398  139.8313  160.1214 C.ar    1  UNL1        0.1446
     11 C         137.6182  140.5744  161.2666 C.ar    1  UNL1        0.0740
     12 C         137.7220  142.4510  164.0347 C.3     1  UNL1        0.2525
     13 O         137.4036  141.0010  163.8204 O.3     1  UNL1       -0.4712
     14 O         140.7040  137.3958  162.0568 O.3     1  UNL1       -0.4712
     15 C         141.2130  137.1746  163.4504 C.3     1  UNL1        0.2525
     16 O         137.8327  140.1478  158.7128 O.3     1  UNL1       -0.4712
     17 C         138.2872  141.4244  158.0696 C.3     1  UNL1        0.2525
     18 C         142.3303  137.1117  156.2474 C.3     1  UNL1        0.2013
     19 C         142.3808  135.6127  156.2651 C.ar    1  UNL1        0.0848
     20 C         141.4615  134.8208  155.3832 C.ar    1  UNL1        0.0197
     21 C         141.5120  133.3218  155.4009 C.ar    1  UNL1        0.0410
     22 C         142.4819  132.6146  156.3005 C.ar    1  UNL1        0.1696
     23 C         143.4013  133.4065  157.1824 C.ar    1  UNL1        0.1593
     24 N         144.3712  132.6994  158.0819 N.pl3   1  UNL1       -0.3402
     25 N         143.3507  134.9056  157.1646 N.ar    1  UNL1       -0.2306
     26 H         144.4043  131.7155  158.0936 H       1  UNL1        0.1438
     27 H         144.9746  133.2191  158.6607 H       1  UNL1        0.1438
     28 O         142.5324  131.1156  156.3182 O.3     1  UNL1       -0.4686
     29 C         141.8783  130.3301  155.2204 C.3     1  UNL1        0.2526
@<TRIPOS>BOND
     1    12    13    1
     2    13     6    1
     3     6     7   ar
     4     7     8   ar
     5     8    14    1
     6    14    15    1
     7     8     9   ar
     8     9     4    1
     9     4     5    2
    10     5     1    1
    11     1     2    2
    12     1     3    2
    13     1    18    1
    14    18    19    1
    15    19    20   ar
    16    20    21   ar
    17    21    22   ar
    18    22    28    1
    19    28    29    1
    20    22    23   ar
    21    23    24    1
    22    23    25   ar
    23     9    10   ar
    24    10    16    1
    25    16    17    1
    26    10    11   ar
    27    11     6   ar
    28    25    19   ar
    29    24    26    1
    30    24    27    1
@<TRIPOS>MOLECULE
*****
 29 30 0 0 0
SMALL
GASTEIGER

@<TRIPOS>ATOM
      1 S         142.1946  138.6268  164.3241 S.O2    1  UNL1        0.0156
      2 O         141.5646  137.3152  164.6883 O.2     1  UNL1       -0.1682
      3 O         142.8247  139.9384  163.9599 O.2     1  UNL1       -0.1682
      4 C         140.9558  139.9582  162.4687 C.2     1  UNL1        0.0257
      5 C         141.4078  138.6502  163.0472 C.2     1  UNL1        0.1233
      6 C         138.5954  140.0284  158.6381 C.ar    1  UNL1        0.1448
      7 C         137.8845  140.0745  159.9581 C.ar    1  UNL1        0.0740
      8 C         138.6713  140.0511  161.2349 C.ar    1  UNL1        0.1446
      9 C         140.1690  139.9816  161.1918 C.ar    1  UNL1        0.0694
     10 C         140.8800  139.9356  159.8719 C.ar    1  UNL1        0.1446
     11 C         140.0932  139.9590  158.5950 C.ar    1  UNL1        0.0740
     12 C         137.0079  141.2664  156.9958 C.3     1  UNL1        0.2525
     13 O         137.8086  140.0519  157.3612 O.3     1  UNL1       -0.4712
     14 O         137.9602  140.0971  162.5550 O.3     1  UNL1       -0.4712
     15 C         137.4024  141.3941  163.0615 C.3     1  UNL1        0.2525
     16 O         142.3778  139.8661  159.8287 O.3     1  UNL1       -0.4712
     17 C         143.0619  138.5463  159.6292 C.3     1  UNL1        0.2525
     18 C         142.9814  138.6034  165.6010 C.3     1  UNL1        0.2013
     19 C         142.3655  139.1113  166.8709 C.ar    1  UNL1        0.0848
     20 C         141.0461  139.8237  166.8319 C.ar    1  UNL1        0.0197
     21 C         140.4302  140.3316  168.1018 C.ar    1  UNL1        0.0410
     22 C         141.1337  140.1271  169.4107 C.ar    1  UNL1        0.1696
     23 C         142.4531  139.4146  169.4497 C.ar    1  UNL1        0.1593
     24 N         143.1566  139.2100  170.7586 N.pl3   1  UNL1       -0.3402
     25 N         143.0690  138.9067  168.1797 N.ar    1  UNL1       -0.2306
     26 H         142.7524  139.5434  171.5921 H       1  UNL1        0.1438
     27 H         144.0226  138.7424  170.7842 H       1  UNL1        0.1438
     28 O         140.5178  140.6350  170.6806 O.3     1  UNL1       -0.4686
     29 C         140.4496  142.1102  170.9434 C.3     1  UNL1        0.2526
@<TRIPOS>BOND
     1    12    13    1
     2    13     6    1
     3     6     7   ar
     4     7     8   ar
     5     8    14    1
     6    14    15    1
     7     8     9   ar
     8     9     4    1
     9     4     5    2
    10     5     1    1
    11     1     2    2
    12     1     3    2
    13     1    18    1
    14    18    19    1
    15    19    20   ar
    16    20    21   ar
    17    21    22   ar
    18    22    28    1
    19    28    29    1
    20    22    23   ar
    21    23    24    1
    22    23    25   ar
    23     9    10   ar
    24    10    16    1
    25    16    17    1
    26    10    11   ar
    27    11     6   ar
    28    25    19   ar
    29    24    26    1
    30    24    27    1
@<TRIPOS>MOLECULE
*****
 29 30 0 0 0
SMALL
GASTEIGER

@<TRIPOS>ATOM
      1 S         138.4827  141.3849  162.3734 S.O2    1  UNL1        0.0156
      2 O         137.3302  142.3439  162.4198 O.2     1  UNL1       -0.1682
      3 O         139.6352  140.4260  162.3271 O.2     1  UNL1       -0.1682
      4 C         139.7600  140.8170  164.5634 C.2     1  UNL1        0.0257
      5 C         138.5787  141.4280  163.8697 C.2     1  UNL1        0.1233
      6 C         140.0482  140.9463  169.0523 C.ar    1  UNL1        0.1448
      7 C         139.2321  139.8802  168.3835 C.ar    1  UNL1        0.0740
      8 C         139.1360  139.8370  166.8872 C.ar    1  UNL1        0.1446
      9 C         139.8561  140.8601  166.0597 C.ar    1  UNL1        0.0694
     10 C         140.6722  141.9262  166.7284 C.ar    1  UNL1        0.1446
     11 C         140.7682  141.9693  168.2247 C.ar    1  UNL1        0.0740
     12 C         140.9693  142.0489  171.2169 C.3     1  UNL1        0.2525
     13 O         140.1442  140.9894  170.5486 O.3     1  UNL1       -0.4712
     14 O         138.3198  138.7708  166.2185 O.3     1  UNL1       -0.4712
     15 C         137.3507  137.9542  167.0209 C.3     1  UNL1        0.2525
     16 O         141.3923  142.9493  165.9009 O.3     1  UNL1       -0.4712
     17 C         142.8015  142.6956  165.4539 C.3     1  UNL1        0.2525
     18 C         138.3866  141.3418  160.8771 C.3     1  UNL1        0.2013
     19 C         138.9887  142.4425  160.0549 C.ar    1  UNL1        0.0848
     20 C         138.6493  142.5624  158.5988 C.ar    1  UNL1        0.0197
     21 C         139.2514  143.6631  157.7765 C.ar    1  UNL1        0.0410
     22 C         140.1928  144.6438  158.4105 C.ar    1  UNL1        0.1696
     23 C         140.5322  144.5239  159.8667 C.ar    1  UNL1        0.1593
     24 N         141.4736  145.5046  160.5006 N.pl3   1  UNL1       -0.3402
     25 N         139.9301  143.4231  160.6889 N.ar    1  UNL1       -0.2306
     26 H         141.8688  146.2270  159.9610 H       1  UNL1        0.1438
     27 H         141.6963  145.4258  161.4564 H       1  UNL1        0.1438
     28 O         140.7949  145.7445  157.5883 O.3     1  UNL1       -0.4686
     29 C         140.0716  146.2589  156.3791 C.3     1  UNL1        0.2526
@<TRIPOS>BOND
     1    12    13    1
     2    13     6    1
     3     6     7   ar
     4     7     8   ar
     5     8    14    1
     6    14    15    1
     7     8     9   ar
     8     9     4    1
     9     4     5    2
    10     5     1    1
    11     1     2    2
    12     1     3    2
    13     1    18    1
    14    18    19    1
    15    19    20   ar
    16    20    21   ar
    17    21    22   ar
    18    22    28    1
    19    28    29    1
    20    22    23   ar
    21    23    24    1
    22    23    25   ar
    23     9    10   ar
    24    10    16    1
    25    16    17    1
    26    10    11   ar
    27    11     6   ar
    28    25    19   ar
    29    24    26    1
    30    24    27    1
