@<TRIPOS>MOLECULE
*****
 26 28 0 0 0
SMALL
GASTEIGER

@<TRIPOS>ATOM
      1 C         142.1696  138.9572  165.1287 C.ar    1  UNL1        0.0729
      2 C         141.7966  139.7768  166.3283 C.ar    1  UNL1        0.0302
      3 C         142.5305  141.0513  166.6234 C.ar    1  UNL1        0.0520
      4 C         143.6372  141.5062  165.7189 C.ar    1  UNL1        0.0486
      5 C         144.0101  140.6866  164.5192 C.ar    1  UNL1        0.1301
      6 N         143.2763  139.4121  164.2241 N.ar    1  UNL1       -0.2342
      7 N         142.1575  141.8709  167.8231 N.pl3   1  UNL1       -0.3027
      8 C         140.7945  142.4906  167.9138 C.3     1  UNL1        0.1231
      9 C         140.4216  143.3102  169.1134 C.3     1  UNL1        0.1636
     10 O         141.4117  143.5102  170.2224 O.3     1  UNL1       -0.3501
     11 C         142.7747  142.8906  170.1317 C.3     1  UNL1        0.1636
     12 C         143.1476  142.0709  168.9320 C.3     1  UNL1        0.1231
     13 N         145.1169  141.1415  163.6147 N.pl3   1  UNL1       -0.3057
     14 H         146.0508  140.9131  163.8263 H       1  UNL1        0.1492
     15 C         144.8006  141.9444  162.3878 C.3     1  UNL1        0.1959
     16 C         144.4464  143.3966  162.5125 C.1     1  UNL1        0.0952
     17 N         144.0923  144.8489  162.6372 N.1     1  UNL1       -0.1941
     18 C         141.4357  137.6826  164.8335 C.3     1  UNL1        0.1097
     19 S         139.9360  137.6611  164.8436 S.3     1  UNL1       -0.0820
     20 C         137.2889  141.8965  163.1302 C.3     1  UNL1        0.0523
     21 C         137.9497  140.5508  163.1792 C.ar    1  UNL1        0.0625
     22 N         138.6615  139.9605  164.3604 N.ar    1  UNL1       -0.2367
     23 C         139.1664  138.6040  163.9667 C.ar    1  UNL1        0.1361
     24 S         138.7668  138.3559  162.5424 S.2     1  UNL1       -0.0650
     25 C         138.0148  139.5591  162.0556 C.ar    1  UNL1        0.0230
     26 C         137.4306  139.7390  160.6860 C.3     1  UNL1        0.0395
@<TRIPOS>BOND
     1    20    21    1
     2    21    22   ar
     3    22    23   ar
     4    23    19    1
     5    19    18    1
     6    18     1    1
     7     1     2   ar
     8     2     3   ar
     9     3     7    1
    10     7     8    1
    11     8     9    1
    12     9    10    1
    13    10    11    1
    14    11    12    1
    15     3     4   ar
    16     4     5   ar
    17     5    13    1
    18    13    15    1
    19    15    16    1
    20    16    17    3
    21     5     6   ar
    22    23    24   ar
    23    24    25   ar
    24    25    26    1
    25    25    21   ar
    26     6     1   ar
    27    12     7    1
    28    13    14    1
@<TRIPOS>MOLECULE
*****
 26 28 0 0 0
SMALL
GASTEIGER

@<TRIPOS>ATOM
      1 C         139.1761  139.8786  164.8316 C.ar    1  UNL1        0.0729
      2 C         140.1952  140.9171  164.4672 C.ar    1  UNL1        0.0302
      3 C         140.9751  141.6125  165.5433 C.ar    1  UNL1        0.0520
      4 C         140.7359  141.2695  166.9838 C.ar    1  UNL1        0.0486
      5 C         139.7167  140.2310  167.3482 C.ar    1  UNL1        0.1301
      6 N         138.9368  139.5356  166.2721 N.ar    1  UNL1       -0.2342
      7 N         141.9944  142.6510  165.1790 N.pl3   1  UNL1       -0.3027
      8 C         141.5932  143.8395  164.3564 C.3     1  UNL1        0.1231
      9 C         142.6123  144.8780  163.9920 C.3     1  UNL1        0.1636
     10 O         144.0328  144.7281  164.4503 O.3     1  UNL1       -0.3501
     11 C         144.4340  143.5396  165.2729 C.3     1  UNL1        0.1636
     12 C         143.4148  142.5011  165.6372 C.3     1  UNL1        0.1231
     13 N         139.4774  139.8880  168.7887 N.pl3   1  UNL1       -0.3057
     14 H         138.5788  139.6193  169.0881 H       1  UNL1        0.1492
     15 C         140.6072  139.9542  169.7732 C.3     1  UNL1        0.1959
     16 C         140.6186  141.0172  170.8314 C.1     1  UNL1        0.0952
     17 N         140.6299  142.0802  171.8897 N.1     1  UNL1       -0.1941
     18 C         138.3961  139.1831  163.7554 C.3     1  UNL1        0.1097
     19 S         138.9391  137.9365  163.1221 S.3     1  UNL1       -0.0820
     20 C         141.9810  138.5535  158.8505 C.3     1  UNL1        0.0523
     21 C         141.5355  138.2964  160.2595 C.ar    1  UNL1        0.0625
     22 N         140.1204  138.3266  160.7563 N.ar    1  UNL1       -0.2367
     23 C         140.1374  138.0128  162.2230 C.ar    1  UNL1        0.1361
     24 S         141.5628  137.7885  162.6327 S.2     1  UNL1       -0.0650
     25 C         142.4269  137.9638  161.4192 C.ar    1  UNL1        0.0230
     26 C         143.9201  137.8299  161.3735 C.3     1  UNL1        0.0395
@<TRIPOS>BOND
     1    20    21    1
     2    21    22   ar
     3    22    23   ar
     4    23    19    1
     5    19    18    1
     6    18     1    1
     7     1     2   ar
     8     2     3   ar
     9     3     7    1
    10     7     8    1
    11     8     9    1
    12     9    10    1
    13    10    11    1
    14    11    12    1
    15     3     4   ar
    16     4     5   ar
    17     5    13    1
    18    13    15    1
    19    15    16    1
    20    16    17    3
    21     5     6   ar
    22    23    24   ar
    23    24    25   ar
    24    25    26    1
    25    25    21   ar
    26     6     1   ar
    27    12     7    1
    28    13    14    1
@<TRIPOS>MOLECULE
*****
 26 28 0 0 0
SMALL
GASTEIGER

@<TRIPOS>ATOM
      1 C         139.0494  140.0147  166.2046 C.ar    1  UNL1        0.0729
      2 C         139.1497  141.1399  165.2179 C.ar    1  UNL1        0.0302
      3 C         140.0020  142.3349  165.5272 C.ar    1  UNL1        0.0520
      4 C         140.7539  142.4046  166.8232 C.ar    1  UNL1        0.0486
      5 C         140.6535  141.2794  167.8100 C.ar    1  UNL1        0.1301
      6 N         139.8013  140.0844  167.5007 N.ar    1  UNL1       -0.2342
      7 N         140.1024  143.4602  164.5404 N.pl3   1  UNL1       -0.3027
      8 C         141.4131  144.1586  164.3302 C.3     1  UNL1        0.1231
      9 C         141.5135  145.2839  163.3435 C.3     1  UNL1        0.1636
     10 O         140.3032  145.7108  162.5669 O.3     1  UNL1       -0.3501
     11 C         138.9925  145.0123  162.7771 C.3     1  UNL1        0.1636
     12 C         138.8921  143.8870  163.7639 C.3     1  UNL1        0.1231
     13 N         141.4054  141.3491  169.1061 N.pl3   1  UNL1       -0.3057
     14 H         142.3218  140.9937  169.1633 H       1  UNL1        0.1492
     15 C         140.7612  141.9602  170.3149 C.3     1  UNL1        0.1959
     16 C         140.3519  143.4032  170.2980 C.1     1  UNL1        0.0952
     17 N         139.9426  144.8461  170.2810 N.1     1  UNL1       -0.1941
     18 C         138.1971  138.8196  165.8953 C.3     1  UNL1        0.1097
     19 S         138.7966  137.6284  165.2086 S.3     1  UNL1       -0.0820
     20 C         142.3636  137.8209  161.3202 C.3     1  UNL1        0.0523
     21 C         141.0639  137.8688  162.0674 C.ar    1  UNL1        0.0625
     22 N         140.8832  137.6345  163.5380 N.ar    1  UNL1       -0.2367
     23 C         139.4243  137.7803  163.8547 C.ar    1  UNL1        0.1361
     24 S         138.7033  138.1047  162.5800 S.2     1  UNL1       -0.0650
     25 C         139.7166  138.1594  161.4754 C.ar    1  UNL1        0.0230
     26 C         139.4326  138.4530  160.0322 C.3     1  UNL1        0.0395
@<TRIPOS>BOND
     1    20    21    1
     2    21    22   ar
     3    22    23   ar
     4    23    19    1
     5    19    18    1
     6    18     1    1
     7     1     2   ar
     8     2     3   ar
     9     3     7    1
    10     7     8    1
    11     8     9    1
    12     9    10    1
    13    10    11    1
    14    11    12    1
    15     3     4   ar
    16     4     5   ar
    17     5    13    1
    18    13    15    1
    19    15    16    1
    20    16    17    3
    21     5     6   ar
    22    23    24   ar
    23    24    25   ar
    24    25    26    1
    25    25    21   ar
    26     6     1   ar
    27    12     7    1
    28    13    14    1
@<TRIPOS>MOLECULE
*****
 26 28 0 0 0
SMALL
GASTEIGER

@<TRIPOS>ATOM
      1 C         140.8310  143.1838  165.1570 C.ar    1  UNL1        0.0729
      2 C         140.7447  142.7154  166.5793 C.ar    1  UNL1        0.0302
      3 C         141.9894  142.3122  167.3129 C.ar    1  UNL1        0.0520
      4 C         143.3203  142.3774  166.6242 C.ar    1  UNL1        0.0486
      5 C         143.4066  142.8459  165.2019 C.ar    1  UNL1        0.1301
      6 N         142.1619  143.2491  164.4683 N.ar    1  UNL1       -0.2342
      7 N         141.9031  141.8437  168.7353 N.pl3   1  UNL1       -0.3027
      8 C         140.9279  142.4841  169.6780 C.3     1  UNL1        0.1231
      9 C         140.8416  142.0157  171.1004 C.3     1  UNL1        0.1636
     10 O         141.7307  140.9068  171.5801 O.3     1  UNL1       -0.3501
     11 C         142.7059  140.2664  170.6374 C.3     1  UNL1        0.1636
     12 C         142.7922  140.7349  169.2150 C.3     1  UNL1        0.1231
     13 N         144.7375  142.9111  164.5131 N.pl3   1  UNL1       -0.3057
     14 H         145.1611  143.7833  164.3423 H       1  UNL1        0.1492
     15 C         145.4229  141.6476  164.0846 C.3     1  UNL1        0.1959
     16 C         144.8123  140.7877  163.0179 C.1     1  UNL1        0.0952
     17 N         144.2016  139.9279  161.9513 N.1     1  UNL1       -0.1941
     18 C         139.5863  143.5871  164.4233 C.3     1  UNL1        0.1097
     19 S         138.3426  142.7573  164.5439 S.3     1  UNL1       -0.0820
     20 C         138.8709  137.5345  165.1136 C.3     1  UNL1        0.0523
     21 C         138.6328  138.8868  164.5098 C.ar    1  UNL1        0.0625
     22 N         138.6927  140.1989  165.2345 N.ar    1  UNL1       -0.2367
     23 C         138.3900  141.2875  164.2479 C.ar    1  UNL1        0.1361
     24 S         138.1430  140.6483  162.9136 S.2     1  UNL1       -0.0650
     25 C         138.2930  139.1646  163.0754 C.ar    1  UNL1        0.0230
     26 C         138.1317  138.1389  161.9930 C.3     1  UNL1        0.0395
@<TRIPOS>BOND
     1    20    21    1
     2    21    22   ar
     3    22    23   ar
     4    23    19    1
     5    19    18    1
     6    18     1    1
     7     1     2   ar
     8     2     3   ar
     9     3     7    1
    10     7     8    1
    11     8     9    1
    12     9    10    1
    13    10    11    1
    14    11    12    1
    15     3     4   ar
    16     4     5   ar
    17     5    13    1
    18    13    15    1
    19    15    16    1
    20    16    17    3
    21     5     6   ar
    22    23    24   ar
    23    24    25   ar
    24    25    26    1
    25    25    21   ar
    26     6     1   ar
    27    12     7    1
    28    13    14    1
@<TRIPOS>MOLECULE
*****
 26 28 0 0 0
SMALL
GASTEIGER

@<TRIPOS>ATOM
      1 C         140.5849  138.5020  164.0856 C.ar    1  UNL1        0.0729
      2 C         141.0291  138.7220  165.5013 C.ar    1  UNL1        0.0302
      3 C         140.2897  139.6890  166.3777 C.ar    1  UNL1        0.0520
      4 C         139.1060  140.4360  165.8383 C.ar    1  UNL1        0.0486
      5 C         138.6617  140.2160  164.4227 C.ar    1  UNL1        0.1301
      6 N         139.4012  139.2489  163.5463 N.ar    1  UNL1       -0.2342
      7 N         140.7339  139.9091  167.7934 N.pl3   1  UNL1       -0.3027
      8 C         139.7203  140.1941  168.8618 C.3     1  UNL1        0.1231
      9 C         140.1645  140.4142  170.2775 C.3     1  UNL1        0.1636
     10 O         141.6223  140.3493  170.6249 O.3     1  UNL1       -0.3501
     11 C         142.6359  140.0643  169.5565 C.3     1  UNL1        0.1636
     12 C         142.1917  139.8442  168.1407 C.3     1  UNL1        0.1231
     13 N         137.4780  140.9629  163.8833 N.pl3   1  UNL1       -0.3057
     14 H         136.6284  140.9641  164.3807 H       1  UNL1        0.1492
     15 C         137.5888  141.7081  162.5863 C.3     1  UNL1        0.1959
     16 C         137.7729  143.1968  162.5899 C.1     1  UNL1        0.0952
     17 N         137.9569  144.6855  162.5936 N.1     1  UNL1       -0.1941
     18 C         141.3244  137.5349  163.2092 C.3     1  UNL1        0.1097
     19 S         142.0578  138.0300  161.9980 S.3     1  UNL1       -0.0820
     20 C         145.7421  141.3542  163.8027 C.3     1  UNL1        0.0523
     21 C         144.6869  140.7249  162.9423 C.ar    1  UNL1        0.0625
     22 N         143.9539  139.4496  163.2368 N.ar    1  UNL1       -0.2367
     23 C         142.9934  139.1969  162.1127 C.ar    1  UNL1        0.1361
     24 S         143.1327  140.3158  161.1235 S.2     1  UNL1       -0.0650
     25 C         144.1793  141.2602  161.6361 C.ar    1  UNL1        0.0230
     26 C         144.6378  142.5187  160.9613 C.3     1  UNL1        0.0395
@<TRIPOS>BOND
     1    20    21    1
     2    21    22   ar
     3    22    23   ar
     4    23    19    1
     5    19    18    1
     6    18     1    1
     7     1     2   ar
     8     2     3   ar
     9     3     7    1
    10     7     8    1
    11     8     9    1
    12     9    10    1
    13    10    11    1
    14    11    12    1
    15     3     4   ar
    16     4     5   ar
    17     5    13    1
    18    13    15    1
    19    15    16    1
    20    16    17    3
    21     5     6   ar
    22    23    24   ar
    23    24    25   ar
    24    25    26    1
    25    25    21   ar
    26     6     1   ar
    27    12     7    1
    28    13    14    1
@<TRIPOS>MOLECULE
*****
 26 28 0 0 0
SMALL
GASTEIGER

@<TRIPOS>ATOM
      1 C         142.6565  142.6835  164.7638 C.ar    1  UNL1        0.0729
      2 C         142.2113  142.2729  166.1361 C.ar    1  UNL1        0.0302
      3 C         140.8465  142.6550  166.6273 C.ar    1  UNL1        0.0520
      4 C         139.9270  143.4476  165.7463 C.ar    1  UNL1        0.0486
      5 C         140.3722  143.8582  164.3741 C.ar    1  UNL1        0.1301
      6 N         141.7370  143.4761  163.8828 N.ar    1  UNL1       -0.2342
      7 N         140.4012  142.2444  167.9997 N.pl3   1  UNL1       -0.3027
      8 C         139.9386  140.8395  168.2490 C.3     1  UNL1        0.1231
      9 C         139.4933  140.4289  169.6212 C.3     1  UNL1        0.1636
     10 O         139.5106  141.4232  170.7442 O.3     1  UNL1       -0.3501
     11 C         139.9733  142.8282  170.4949 C.3     1  UNL1        0.1636
     12 C         140.4186  143.2387  169.1226 C.3     1  UNL1        0.1231
     13 N         139.4526  144.6508  163.4931 N.pl3   1  UNL1       -0.3057
     14 H         139.7966  145.4266  162.9939 H       1  UNL1        0.1492
     15 C         138.0091  144.2616  163.3727 C.3     1  UNL1        0.1959
     16 C         137.6397  142.8916  162.8862 C.1     1  UNL1        0.0952
     17 N         137.2704  141.5216  162.3998 N.1     1  UNL1       -0.1941
     18 C         144.0213  142.3014  164.2725 C.3     1  UNL1        0.1097
     19 S         144.1879  141.1188  163.3649 S.3     1  UNL1       -0.0820
     20 C         139.9676  138.4099  161.7120 C.3     1  UNL1        0.0523
     21 C         141.1622  138.8432  162.5090 C.ar    1  UNL1        0.0625
     22 N         142.0287  140.0337  162.2224 N.ar    1  UNL1       -0.2367
     23 C         143.1020  140.0884  163.2688 C.ar    1  UNL1        0.1361
     24 S         142.8989  138.9318  164.2021 S.2     1  UNL1       -0.0650
     25 C         141.7000  138.1623  163.7326 C.ar    1  UNL1        0.0230
     26 C         141.1378  136.9285  164.3739 C.3     1  UNL1        0.0395
@<TRIPOS>BOND
     1    20    21    1
     2    21    22   ar
     3    22    23   ar
     4    23    19    1
     5    19    18    1
     6    18     1    1
     7     1     2   ar
     8     2     3   ar
     9     3     7    1
    10     7     8    1
    11     8     9    1
    12     9    10    1
    13    10    11    1
    14    11    12    1
    15     3     4   ar
    16     4     5   ar
    17     5    13    1
    18    13    15    1
    19    15    16    1
    20    16    17    3
    21     5     6   ar
    22    23    24   ar
    23    24    25   ar
    24    25    26    1
    25    25    21   ar
    26     6     1   ar
    27    12     7    1
    28    13    14    1
@<TRIPOS>MOLECULE
*****
 26 28 0 0 0
SMALL
GASTEIGER

@<TRIPOS>ATOM
      1 C         139.0855  140.1007  165.8482 C.ar    1  UNL1        0.0729
      2 C         139.6335  140.3250  167.2263 C.ar    1  UNL1        0.0302
      3 C         140.3634  141.5959  167.5455 C.ar    1  UNL1        0.0520
      4 C         140.5453  142.6426  166.4866 C.ar    1  UNL1        0.0486
      5 C         139.9974  142.4183  165.1084 C.ar    1  UNL1        0.1301
      6 N         139.2675  141.1474  164.7892 N.ar    1  UNL1       -0.2342
      7 N         140.9114  141.8203  168.9238 N.pl3   1  UNL1       -0.3027
      8 C         142.1081  142.7030  169.1205 C.3     1  UNL1        0.1231
      9 C         142.6561  142.9274  170.4986 C.3     1  UNL1        0.1636
     10 O         142.0074  142.2690  171.6801 O.3     1  UNL1       -0.3501
     11 C         140.8108  141.3862  171.4834 C.3     1  UNL1        0.1636
     12 C         140.2628  141.1619  170.1051 C.3     1  UNL1        0.1231
     13 N         140.1793  143.4650  164.0494 N.pl3   1  UNL1       -0.3057
     14 H         141.0580  143.5853  163.6220 H       1  UNL1        0.1492
     15 C         139.0225  144.3283  163.6416 C.3     1  UNL1        0.1959
     16 C         139.1804  145.3142  162.5222 C.1     1  UNL1        0.0952
     17 N         139.3383  146.3001  161.4028 N.1     1  UNL1       -0.1941
     18 C         138.3556  138.8298  165.5289 C.3     1  UNL1        0.1097
     19 S         139.0891  137.6802  164.9041 S.3     1  UNL1       -0.0820
     20 C         139.6337  138.5802  159.7296 C.3     1  UNL1        0.0523
     21 C         139.9390  138.2409  161.1585 C.ar    1  UNL1        0.0625
     22 N         138.9533  138.2169  162.2890 N.ar    1  UNL1       -0.2367
     23 C         139.6887  137.8273  163.5369 C.ar    1  UNL1        0.1361
     24 S         141.1288  137.6105  163.1778 S.2     1  UNL1       -0.0650
     25 C         141.2836  137.8662  161.7079 C.ar    1  UNL1        0.0230
     26 C         142.5588  137.7648  160.9248 C.3     1  UNL1        0.0395
@<TRIPOS>BOND
     1    20    21    1
     2    21    22   ar
     3    22    23   ar
     4    23    19    1
     5    19    18    1
     6    18     1    1
     7     1     2   ar
     8     2     3   ar
     9     3     7    1
    10     7     8    1
    11     8     9    1
    12     9    10    1
    13    10    11    1
    14    11    12    1
    15     3     4   ar
    16     4     5   ar
    17     5    13    1
    18    13    15    1
    19    15    16    1
    20    16    17    3
    21     5     6   ar
    22    23    24   ar
    23    24    25   ar
    24    25    26    1
    25    25    21   ar
    26     6     1   ar
    27    12     7    1
    28    13    14    1
@<TRIPOS>MOLECULE
*****
 26 28 0 0 0
SMALL
GASTEIGER

@<TRIPOS>ATOM
      1 C         143.8051  142.6143  164.7639 C.ar    1  UNL1        0.0729
      2 C         142.9933  142.2239  165.9632 C.ar    1  UNL1        0.0302
      3 C         142.7203  140.7762  166.2451 C.ar    1  UNL1        0.0520
      4 C         143.2592  139.7189  165.3277 C.ar    1  UNL1        0.0486
      5 C         144.0710  140.1092  164.1284 C.ar    1  UNL1        0.1301
      6 N         144.3440  141.5570  163.8465 N.ar    1  UNL1       -0.2342
      7 N         141.9084  140.3857  167.4445 N.pl3   1  UNL1       -0.3027
      8 C         140.4129  140.4952  167.4057 C.3     1  UNL1        0.1231
      9 C         139.6010  140.1048  168.6050 C.3     1  UNL1        0.1636
     10 O         140.2846  139.6049  169.8432 O.3     1  UNL1       -0.3501
     11 C         141.7801  139.4954  169.8819 C.3     1  UNL1        0.1636
     12 C         142.5920  139.8859  168.6825 C.3     1  UNL1        0.1231
     13 N         144.6099  139.0519  163.2110 N.pl3   1  UNL1       -0.3057
     14 H         145.4943  138.6550  163.3831 H       1  UNL1        0.1492
     15 C         143.8014  138.5993  162.0314 C.3     1  UNL1        0.1959
     16 C         142.4677  137.9462  162.2424 C.1     1  UNL1        0.0952
     17 N         141.1339  137.2931  162.4534 N.1     1  UNL1       -0.1941
     18 C         144.0781  144.0621  164.4819 C.3     1  UNL1        0.1097
     19 S         143.3519  144.7596  163.3702 S.3     1  UNL1       -0.0820
     20 C         139.0313  142.9110  160.9625 C.3     1  UNL1        0.0523
     21 C         139.9378  143.5608  161.9654 C.ar    1  UNL1        0.0625
     22 N         141.4269  143.6997  161.8483 N.ar    1  UNL1       -0.2367
     23 C         141.9237  144.4105  163.0722 C.ar    1  UNL1        0.1361
     24 S         140.7419  144.7111  163.9456 S.2     1  UNL1       -0.0650
     25 C         139.5146  144.1859  163.2617 C.ar    1  UNL1        0.0230
     26 C         138.1105  144.2709  163.7825 C.3     1  UNL1        0.0395
@<TRIPOS>BOND
     1    20    21    1
     2    21    22   ar
     3    22    23   ar
     4    23    19    1
     5    19    18    1
     6    18     1    1
     7     1     2   ar
     8     2     3   ar
     9     3     7    1
    10     7     8    1
    11     8     9    1
    12     9    10    1
    13    10    11    1
    14    11    12    1
    15     3     4   ar
    16     4     5   ar
    17     5    13    1
    18    13    15    1
    19    15    16    1
    20    16    17    3
    21     5     6   ar
    22    23    24   ar
    23    24    25   ar
    24    25    26    1
    25    25    21   ar
    26     6     1   ar
    27    12     7    1
    28    13    14    1
@<TRIPOS>MOLECULE
*****
 26 28 0 0 0
SMALL
GASTEIGER

@<TRIPOS>ATOM
      1 C         143.1027  141.1348  164.5546 C.ar    1  UNL1        0.0729
      2 C         142.1544  141.9927  163.7706 C.ar    1  UNL1        0.0302
      3 C         141.2139  142.9173  164.4850 C.ar    1  UNL1        0.0520
      4 C         141.2217  142.9841  165.9835 C.ar    1  UNL1        0.0486
      5 C         142.1700  142.1262  166.7676 C.ar    1  UNL1        0.1301
      6 N         143.1105  141.2016  166.0531 N.ar    1  UNL1       -0.2342
      7 N         140.2655  143.7752  163.7010 N.pl3   1  UNL1       -0.3027
      8 C         138.7884  143.5270  163.7813 C.3     1  UNL1        0.1231
      9 C         137.8400  144.3849  162.9973 C.3     1  UNL1        0.1636
     10 O         138.3688  145.4909  162.1329 O.3     1  UNL1       -0.3501
     11 C         139.8459  145.7391  162.0526 C.3     1  UNL1        0.1636
     12 C         140.7943  144.8812  162.8366 C.3     1  UNL1        0.1231
     13 N         142.1778  142.1930  168.2661 N.pl3   1  UNL1       -0.3057
     14 H         143.0323  142.1837  168.7548 H       1  UNL1        0.1492
     15 C         140.8835  142.2740  169.0199 C.3     1  UNL1        0.1959
     16 C         140.4699  143.5642  169.6635 C.1     1  UNL1        0.0952
     17 N         140.0562  144.8544  170.3071 N.1     1  UNL1       -0.1941
     18 C         144.0433  140.2102  163.8402 C.3     1  UNL1        0.1097
     19 S         143.5727  138.8562  163.3983 S.3     1  UNL1       -0.0820
     20 C         138.5386  137.9918  162.0597 C.3     1  UNL1        0.0523
     21 C         139.8020  138.1093  162.8596 C.ar    1  UNL1        0.0625
     22 N         141.1428  138.5287  162.3336 N.ar    1  UNL1       -0.2367
     23 C         142.1160  138.5066  163.4749 C.ar    1  UNL1        0.1361
     24 S         141.3767  138.0736  164.7062 S.2     1  UNL1       -0.0650
     25 C         139.9467  137.8280  164.3259 C.ar    1  UNL1        0.0230
     26 C         138.8532  137.3799  165.2497 C.3     1  UNL1        0.0395
@<TRIPOS>BOND
     1    20    21    1
     2    21    22   ar
     3    22    23   ar
     4    23    19    1
     5    19    18    1
     6    18     1    1
     7     1     2   ar
     8     2     3   ar
     9     3     7    1
    10     7     8    1
    11     8     9    1
    12     9    10    1
    13    10    11    1
    14    11    12    1
    15     3     4   ar
    16     4     5   ar
    17     5    13    1
    18    13    15    1
    19    15    16    1
    20    16    17    3
    21     5     6   ar
    22    23    24   ar
    23    24    25   ar
    24    25    26    1
    25    25    21   ar
    26     6     1   ar
    27    12     7    1
    28    13    14    1
