@<TRIPOS>MOLECULE
*****
 29 32 0 0 0
SMALL
GASTEIGER

@<TRIPOS>ATOM
      1 C         138.5232  141.6278  161.3612 C.3     1  UNL1        0.0501
      2 C         139.3653  142.3331  162.3826 C.ar    1  UNL1        0.0391
      3 C         139.9796  143.6932  162.2318 C.ar    1  UNL1        0.0073
      4 C         140.7349  144.0029  163.4902 C.ar    1  UNL1        0.0157
      5 C         140.5874  142.8341  164.4188 C.ar    1  UNL1        0.0634
      6 N         139.7409  141.8022  163.7343 N.ar    1  UNL1       -0.3101
      7 C         139.3405  140.4726  164.3017 C.ar    1  UNL1        0.0638
      8 C         139.8919  139.2085  163.7119 C.ar    1  UNL1        0.0198
      9 C         139.4915  137.8790  164.2793 C.ar    1  UNL1        0.0311
     10 C         138.5395  137.8136  165.4367 C.ar    1  UNL1        0.1402
     11 F         138.1390  136.4841  166.0042 F       1  UNL1       -0.2042
     12 C         137.9880  139.0777  166.0265 C.ar    1  UNL1        0.0311
     13 C         138.3885  140.4072  165.4591 C.ar    1  UNL1        0.0198
     14 C         141.1820  142.7178  165.7910 C.ar    1  UNL1        0.0161
     15 C         140.3114  142.8790  167.0018 C.ar    1  UNL1        0.0011
     16 C         140.9060  142.7626  168.3740 C.ar    1  UNL1       -0.0042
     17 C         142.3711  142.4850  168.5354 C.ar    1  UNL1       -0.0225
     18 C         143.2418  142.3238  167.3246 C.ar    1  UNL1       -0.0042
     19 C         142.6472  142.4402  165.9525 C.ar    1  UNL1        0.0011
     20 C         142.9657  142.3687  169.9076 C.3     1  UNL1        0.0224
     21 C         144.4324  142.6070  170.1121 C.3     1  UNL1        0.0047
     22 C         142.0935  142.0139  171.0753 C.3     1  UNL1        0.0047
     23 C         139.8596  144.5868  161.0330 C.3     1  UNL1        0.1004
     24 N         140.8727  144.5021  159.9300 N.3     1  UNL1       -0.2646
     25 C         141.9214  143.4300  159.9556 C.3     1  UNL1        0.1049
     26 C         142.9344  143.3453  158.8527 C.3     1  UNL1        0.1595
     27 O         142.8987  144.3327  157.7241 O.3     1  UNL1       -0.3508
     28 C         141.8499  145.4048  157.6984 C.3     1  UNL1        0.1595
     29 C         140.8369  145.4895  158.8014 C.3     1  UNL1        0.1049
@<TRIPOS>BOND
     1     1     2    1
     2     2     3   ar
     3     3    23    1
     4    23    24    1
     5    24    25    1
     6    25    26    1
     7    26    27    1
     8    27    28    1
     9    28    29    1
    10     3     4   ar
    11     4     5   ar
    12     5    14    1
    13    14    15   ar
    14    15    16   ar
    15    16    17   ar
    16    17    20    1
    17    20    21    1
    18    20    22    1
    19    17    18   ar
    20    18    19   ar
    21     5     6   ar
    22     6     7    1
    23     7     8   ar
    24     8     9   ar
    25     9    10   ar
    26    10    11    1
    27    10    12   ar
    28    12    13   ar
    29     6     2   ar
    30    13     7   ar
    31    29    24    1
    32    19    14   ar
@<TRIPOS>MOLECULE
*****
 29 32 0 0 0
SMALL
GASTEIGER

@<TRIPOS>ATOM
      1 C         141.5538  140.3234  160.6898 C.3     1  UNL1        0.0501
      2 C         141.9437  141.2122  161.8335 C.ar    1  UNL1        0.0391
      3 C         142.7880  142.4486  161.7413 C.ar    1  UNL1        0.0073
      4 C         142.9237  143.0211  163.1211 C.ar    1  UNL1        0.0157
      5 C         142.1634  142.1386  164.0661 C.ar    1  UNL1        0.0634
      6 N         141.5577  141.0206  163.2703 N.ar    1  UNL1       -0.3101
      7 C         140.7140  139.9066  163.8156 C.ar    1  UNL1        0.0638
      8 C         139.2462  140.1184  164.0405 C.ar    1  UNL1        0.0198
      9 C         138.4025  139.0044  164.5858 C.ar    1  UNL1        0.0311
     10 C         139.0268  137.6786  164.9061 C.ar    1  UNL1        0.1402
     11 F         138.1831  136.5646  165.4514 F       1  UNL1       -0.2042
     12 C         140.4946  137.4668  164.6812 C.ar    1  UNL1        0.0311
     13 C         141.3382  138.5808  164.1359 C.ar    1  UNL1        0.0198
     14 C         142.0318  142.3389  165.5468 C.ar    1  UNL1        0.0161
     15 C         143.2256  142.1591  166.4369 C.ar    1  UNL1        0.0011
     16 C         143.0940  142.3594  167.9177 C.ar    1  UNL1       -0.0042
     17 C         141.7687  142.7394  168.5082 C.ar    1  UNL1       -0.0225
     18 C         140.5748  142.9192  167.6181 C.ar    1  UNL1       -0.0042
     19 C         140.7064  142.7190  166.1374 C.ar    1  UNL1        0.0011
     20 C         141.6371  142.9397  169.9890 C.3     1  UNL1        0.0224
     21 C         142.8478  143.2659  170.8122 C.3     1  UNL1        0.0047
     22 C         140.2948  142.8138  170.6465 C.3     1  UNL1        0.0047
     23 C         143.3906  143.0132  160.4892 C.3     1  UNL1        0.1004
     24 N         142.5593  143.8616  159.5731 N.3     1  UNL1       -0.2646
     25 C         141.3797  144.6147  160.1130 C.3     1  UNL1        0.1049
     26 C         140.5484  145.4631  159.1969 C.3     1  UNL1        0.1595
     27 O         140.8966  145.5583  157.7410 O.3     1  UNL1       -0.3508
     28 C         142.0761  144.8052  157.2012 C.3     1  UNL1        0.1595
     29 C         142.9074  143.9568  158.1172 C.3     1  UNL1        0.1049
@<TRIPOS>BOND
     1     1     2    1
     2     2     3   ar
     3     3    23    1
     4    23    24    1
     5    24    25    1
     6    25    26    1
     7    26    27    1
     8    27    28    1
     9    28    29    1
    10     3     4   ar
    11     4     5   ar
    12     5    14    1
    13    14    15   ar
    14    15    16   ar
    15    16    17   ar
    16    17    20    1
    17    20    21    1
    18    20    22    1
    19    17    18   ar
    20    18    19   ar
    21     5     6   ar
    22     6     7    1
    23     7     8   ar
    24     8     9   ar
    25     9    10   ar
    26    10    11    1
    27    10    12   ar
    28    12    13   ar
    29     6     2   ar
    30    13     7   ar
    31    29    24    1
    32    19    14   ar
@<TRIPOS>MOLECULE
*****
 29 32 0 0 0
SMALL
GASTEIGER

@<TRIPOS>ATOM
      1 C         143.9682  140.6510  160.8088 C.3     1  UNL1        0.0501
      2 C         143.2316  139.9675  161.9225 C.ar    1  UNL1        0.0391
      3 C         142.6842  138.5714  161.8911 C.ar    1  UNL1        0.0073
      4 C         142.0274  138.3012  163.2124 C.ar    1  UNL1        0.0157
      5 C         142.1689  139.5304  164.0603 C.ar    1  UNL1        0.0634
      6 N         142.9132  140.5603  163.2631 N.ar    1  UNL1       -0.3101
      7 C         143.2754  141.9406  163.7254 C.ar    1  UNL1        0.0638
      8 C         144.3809  142.1322  164.7209 C.ar    1  UNL1        0.0198
      9 C         144.7431  143.5124  165.1832 C.ar    1  UNL1        0.0311
     10 C         143.9997  144.7011  164.6499 C.ar    1  UNL1        0.1402
     11 F         144.3619  146.0814  165.1122 F       1  UNL1       -0.2042
     12 C         142.8942  144.5096  163.6544 C.ar    1  UNL1        0.0311
     13 C         142.5320  143.1293  163.1921 C.ar    1  UNL1        0.0198
     14 C         141.6561  139.7000  165.4597 C.ar    1  UNL1        0.0161
     15 C         140.2138  140.0385  165.6941 C.ar    1  UNL1        0.0011
     16 C         139.7011  140.2081  167.0935 C.ar    1  UNL1       -0.0042
     17 C         140.6306  140.0392  168.2585 C.ar    1  UNL1       -0.0225
     18 C         142.0730  139.7008  168.0241 C.ar    1  UNL1       -0.0042
     19 C         142.5858  139.5312  166.6247 C.ar    1  UNL1        0.0011
     20 C         140.1179  140.2088  169.6579 C.3     1  UNL1        0.0224
     21 C         138.6410  140.2604  169.9144 C.3     1  UNL1        0.0047
     22 C         141.0822  140.3269  170.8008 C.3     1  UNL1        0.0047
     23 C         142.7773  137.6135  160.7406 C.3     1  UNL1        0.1004
     24 N         142.0663  137.9147  159.4545 N.3     1  UNL1       -0.2646
     25 C         142.6908  137.5333  158.1452 C.3     1  UNL1        0.1049
     26 C         141.9798  137.8345  156.8592 C.3     1  UNL1        0.1595
     27 O         140.6443  138.5171  156.8826 O.3     1  UNL1       -0.3508
     28 C         140.0198  138.8985  158.1920 C.3     1  UNL1        0.1595
     29 C         140.7308  138.5973  159.4780 C.3     1  UNL1        0.1049
@<TRIPOS>BOND
     1     1     2    1
     2     2     3   ar
     3     3    23    1
     4    23    24    1
     5    24    25    1
     6    25    26    1
     7    26    27    1
     8    27    28    1
     9    28    29    1
    10     3     4   ar
    11     4     5   ar
    12     5    14    1
    13    14    15   ar
    14    15    16   ar
    15    16    17   ar
    16    17    20    1
    17    20    21    1
    18    20    22    1
    19    17    18   ar
    20    18    19   ar
    21     5     6   ar
    22     6     7    1
    23     7     8   ar
    24     8     9   ar
    25     9    10   ar
    26    10    11    1
    27    10    12   ar
    28    12    13   ar
    29     6     2   ar
    30    13     7   ar
    31    29    24    1
    32    19    14   ar
@<TRIPOS>MOLECULE
*****
 29 32 0 0 0
SMALL
GASTEIGER

@<TRIPOS>ATOM
      1 C         141.5287  142.8843  160.5444 C.3     1  UNL1        0.0501
      2 C         142.2299  142.1560  161.6525 C.ar    1  UNL1        0.0391
      3 C         143.4917  141.3557  161.5215 C.ar    1  UNL1        0.0073
      4 C         143.8340  140.8052  162.8742 C.ar    1  UNL1        0.0157
      5 C         142.7837  141.2653  163.8412 C.ar    1  UNL1        0.0634
      6 N         141.7922  142.1002  163.0861 N.ar    1  UNL1       -0.3101
      7 C         140.5766  142.7629  163.6634 C.ar    1  UNL1        0.0638
      8 C         140.6178  144.2168  164.0298 C.ar    1  UNL1        0.0198
      9 C         139.4022  144.8796  164.6071 C.ar    1  UNL1        0.0311
     10 C         138.1454  144.0882  164.8178 C.ar    1  UNL1        0.1402
     11 F         136.9298  144.7509  165.3951 F       1  UNL1       -0.2042
     12 C         138.1043  142.6343  164.4514 C.ar    1  UNL1        0.0311
     13 C         139.3199  141.9716  163.8741 C.ar    1  UNL1        0.0198
     14 C         142.7335  140.9466  165.3061 C.ar    1  UNL1        0.0161
     15 C         142.5828  139.5248  165.7595 C.ar    1  UNL1        0.0011
     16 C         142.5326  139.2060  167.2244 C.ar    1  UNL1       -0.0042
     17 C         142.6333  140.3090  168.2358 C.ar    1  UNL1       -0.0225
     18 C         142.7841  141.7309  167.7824 C.ar    1  UNL1       -0.0042
     19 C         142.8342  142.0497  166.3176 C.ar    1  UNL1        0.0011
     20 C         142.5832  139.9903  169.7007 C.3     1  UNL1        0.0224
     21 C         142.7451  138.5736  170.1659 C.3     1  UNL1        0.0047
     22 C         142.3711  141.0883  170.7004 C.3     1  UNL1        0.0047
     23 C         144.2739  141.1432  160.2594 C.3     1  UNL1        0.1004
     24 N         143.7836  140.1708  159.2278 N.3     1  UNL1       -0.2646
     25 C         143.1701  138.8703  159.6547 C.3     1  UNL1        0.1049
     26 C         142.6798  137.8979  158.6232 C.3     1  UNL1        0.1595
     27 O         142.8030  138.2261  157.1647 O.3     1  UNL1       -0.3508
     28 C         143.4165  139.5266  156.7378 C.3     1  UNL1        0.1595
     29 C         143.9068  140.4989  157.7694 C.3     1  UNL1        0.1049
@<TRIPOS>BOND
     1     1     2    1
     2     2     3   ar
     3     3    23    1
     4    23    24    1
     5    24    25    1
     6    25    26    1
     7    26    27    1
     8    27    28    1
     9    28    29    1
    10     3     4   ar
    11     4     5   ar
    12     5    14    1
    13    14    15   ar
    14    15    16   ar
    15    16    17   ar
    16    17    20    1
    17    20    21    1
    18    20    22    1
    19    17    18   ar
    20    18    19   ar
    21     5     6   ar
    22     6     7    1
    23     7     8   ar
    24     8     9   ar
    25     9    10   ar
    26    10    11    1
    27    10    12   ar
    28    12    13   ar
    29     6     2   ar
    30    13     7   ar
    31    29    24    1
    32    19    14   ar
@<TRIPOS>MOLECULE
*****
 29 32 0 0 0
SMALL
GASTEIGER

@<TRIPOS>ATOM
      1 C         141.9153  143.6905  160.8316 C.3     1  UNL1        0.0501
      2 C         142.5968  142.9149  161.9198 C.ar    1  UNL1        0.0391
      3 C         143.9433  142.2607  161.8256 C.ar    1  UNL1        0.0073
      4 C         144.2300  141.5988  163.1408 C.ar    1  UNL1        0.0157
      5 C         143.0608  141.8439  164.0478 C.ar    1  UNL1        0.0634
      6 N         142.0513  142.6573  163.2931 N.ar    1  UNL1       -0.3101
      7 C         140.7287  143.1302  163.8195 C.ar    1  UNL1        0.0638
      8 C         139.5615  142.1893  163.8692 C.ar    1  UNL1        0.0198
      9 C         138.2388  142.6620  164.3956 C.ar    1  UNL1        0.0311
     10 C         138.0834  144.0758  164.8722 C.ar    1  UNL1        0.1402
     11 F         136.7607  144.5487  165.3985 F       1  UNL1       -0.2042
     12 C         139.2505  145.0167  164.8224 C.ar    1  UNL1        0.0311
     13 C         140.5732  144.5439  164.2960 C.ar    1  UNL1        0.0198
     14 C         142.9248  141.3605  165.4612 C.ar    1  UNL1        0.0161
     15 C         143.0496  142.3285  166.6002 C.ar    1  UNL1        0.0011
     16 C         142.9136  141.8451  168.0136 C.ar    1  UNL1       -0.0042
     17 C         142.6528  140.3938  168.2881 C.ar    1  UNL1       -0.0225
     18 C         142.5280  139.4257  167.1491 C.ar    1  UNL1       -0.0042
     19 C         142.6640  139.9091  165.7357 C.ar    1  UNL1        0.0011
     20 C         142.5168  139.9104  169.7015 C.3     1  UNL1        0.0224
     21 C         142.1060  140.8639  170.7840 C.3     1  UNL1        0.0047
     22 C         142.7916  138.4734  170.0325 C.3     1  UNL1        0.0047
     23 C         144.8447  142.2672  160.6267 C.3     1  UNL1        0.1004
     24 N         144.3387  141.7699  159.3051 N.3     1  UNL1       -0.2646
     25 C         144.3712  142.6674  158.1037 C.3     1  UNL1        0.1049
     26 C         143.8651  142.1701  156.7821 C.3     1  UNL1        0.1595
     27 O         143.3266  140.7753  156.6619 O.3     1  UNL1       -0.3508
     28 C         143.2941  139.8778  157.8633 C.3     1  UNL1        0.1595
     29 C         143.8002  140.3751  159.1849 C.3     1  UNL1        0.1049
@<TRIPOS>BOND
     1     1     2    1
     2     2     3   ar
     3     3    23    1
     4    23    24    1
     5    24    25    1
     6    25    26    1
     7    26    27    1
     8    27    28    1
     9    28    29    1
    10     3     4   ar
    11     4     5   ar
    12     5    14    1
    13    14    15   ar
    14    15    16   ar
    15    16    17   ar
    16    17    20    1
    17    20    21    1
    18    20    22    1
    19    17    18   ar
    20    18    19   ar
    21     5     6   ar
    22     6     7    1
    23     7     8   ar
    24     8     9   ar
    25     9    10   ar
    26    10    11    1
    27    10    12   ar
    28    12    13   ar
    29     6     2   ar
    30    13     7   ar
    31    29    24    1
    32    19    14   ar
@<TRIPOS>MOLECULE
*****
 29 32 0 0 0
SMALL
GASTEIGER

@<TRIPOS>ATOM
      1 C         143.3615  139.8099  158.3823 C.3     1  UNL1        0.0501
      2 C         142.1855  139.3622  159.1988 C.ar    1  UNL1        0.0391
      3 C         140.9635  138.6663  158.6770 C.ar    1  UNL1        0.0073
      4 C         140.0478  138.4059  159.8362 C.ar    1  UNL1        0.0157
      5 C         140.7039  138.9409  161.0745 C.ar    1  UNL1        0.0634
      6 N         142.0251  139.5320  160.6805 N.ar    1  UNL1       -0.3101
      7 C         143.0125  140.1792  161.6059 C.ar    1  UNL1        0.0638
      8 C         143.1893  141.6687  161.5912 C.ar    1  UNL1        0.0198
      9 C         144.1766  142.3159  162.5165 C.ar    1  UNL1        0.0311
     10 C         144.9872  141.4736  163.4565 C.ar    1  UNL1        0.1402
     11 F         145.9746  142.1208  164.3819 F       1  UNL1       -0.2042
     12 C         144.8104  139.9841  163.4712 C.ar    1  UNL1        0.0311
     13 C         143.8230  139.3369  162.5458 C.ar    1  UNL1        0.0198
     14 C         140.1381  138.8932  162.4629 C.ar    1  UNL1        0.0161
     15 C         139.3736  140.0657  163.0019 C.ar    1  UNL1        0.0011
     16 C         138.8079  140.0181  164.3903 C.ar    1  UNL1       -0.0042
     17 C         139.0067  138.7979  165.2396 C.ar    1  UNL1       -0.0225
     18 C         139.7712  137.6253  164.7006 C.ar    1  UNL1       -0.0042
     19 C         140.3369  137.6730  163.3123 C.ar    1  UNL1        0.0011
     20 C         138.4409  138.7502  166.6280 C.3     1  UNL1        0.0224
     21 C         138.9650  139.6780  167.6837 C.3     1  UNL1        0.0047
     22 C         137.3511  137.7747  166.9607 C.3     1  UNL1        0.0047
     23 C         140.7030  138.2957  157.2471 C.3     1  UNL1        0.1004
     24 N         141.2714  137.0262  156.6857 N.3     1  UNL1       -0.2646
     25 C         140.5461  136.2984  155.5929 C.3     1  UNL1        0.1049
     26 C         141.1145  135.0289  155.0316 C.3     1  UNL1        0.1595
     27 O         142.4084  134.4872  155.5630 O.3     1  UNL1       -0.3508
     28 C         143.1338  135.2149  156.6558 C.3     1  UNL1        0.1595
     29 C         142.5653  136.4844  157.2171 C.3     1  UNL1        0.1049
@<TRIPOS>BOND
     1     1     2    1
     2     2     3   ar
     3     3    23    1
     4    23    24    1
     5    24    25    1
     6    25    26    1
     7    26    27    1
     8    27    28    1
     9    28    29    1
    10     3     4   ar
    11     4     5   ar
    12     5    14    1
    13    14    15   ar
    14    15    16   ar
    15    16    17   ar
    16    17    20    1
    17    20    21    1
    18    20    22    1
    19    17    18   ar
    20    18    19   ar
    21     5     6   ar
    22     6     7    1
    23     7     8   ar
    24     8     9   ar
    25     9    10   ar
    26    10    11    1
    27    10    12   ar
    28    12    13   ar
    29     6     2   ar
    30    13     7   ar
    31    29    24    1
    32    19    14   ar
@<TRIPOS>MOLECULE
*****
 29 32 0 0 0
SMALL
GASTEIGER

@<TRIPOS>ATOM
      1 C         140.8174  139.8961  167.0464 C.3     1  UNL1        0.0501
      2 C         141.3549  140.9833  166.1638 C.ar    1  UNL1        0.0391
      3 C         142.3531  142.0296  166.5622 C.ar    1  UNL1        0.0073
      4 C         142.6036  142.9082  165.3725 C.ar    1  UNL1        0.0157
      5 C         141.7602  142.4049  164.2388 C.ar    1  UNL1        0.0634
      6 N         140.9884  141.2152  164.7279 N.ar    1  UNL1       -0.3101
      7 C         140.0201  140.4005  163.9224 C.ar    1  UNL1        0.0638
      8 C         140.3711  138.9981  163.5222 C.ar    1  UNL1        0.0198
      9 C         139.4029  138.1834  162.7167 C.ar    1  UNL1        0.0311
     10 C         138.0836  138.7711  162.3115 C.ar    1  UNL1        0.1402
     11 F         137.1154  137.9564  161.5060 F       1  UNL1       -0.2042
     12 C         137.7327  140.1735  162.7117 C.ar    1  UNL1        0.0311
     13 C         138.7009  140.9882  163.5171 C.ar    1  UNL1        0.0198
     14 C         141.6992  142.9886  162.8584 C.ar    1  UNL1        0.0161
     15 C         142.4921  142.3687  161.7462 C.ar    1  UNL1        0.0011
     16 C         142.4311  142.9524  160.3659 C.ar    1  UNL1       -0.0042
     17 C         141.5773  144.1561  160.0976 C.ar    1  UNL1       -0.0225
     18 C         140.7845  144.7762  161.2098 C.ar    1  UNL1       -0.0042
     19 C         140.8454  144.1924  162.5902 C.ar    1  UNL1        0.0011
     20 C         141.5164  144.7399  158.7173 C.3     1  UNL1        0.0224
     21 C         140.3864  145.6501  158.3371 C.3     1  UNL1        0.0047
     22 C         142.5855  144.4135  157.7170 C.3     1  UNL1        0.0047
     23 C         142.9892  142.1723  167.9131 C.3     1  UNL1        0.1004
     24 N         142.1387  142.1513  169.1486 N.3     1  UNL1       -0.2646
     25 C         140.9296  143.0342  169.2419 C.3     1  UNL1        0.1049
     26 C         140.0792  143.0131  170.4773 C.3     1  UNL1        0.1595
     27 O         140.4378  142.1092  171.6194 O.3     1  UNL1       -0.3508
     28 C         141.6469  141.2264  171.5261 C.3     1  UNL1        0.1595
     29 C         142.4973  141.2474  170.2907 C.3     1  UNL1        0.1049
@<TRIPOS>BOND
     1     1     2    1
     2     2     3   ar
     3     3    23    1
     4    23    24    1
     5    24    25    1
     6    25    26    1
     7    26    27    1
     8    27    28    1
     9    28    29    1
    10     3     4   ar
    11     4     5   ar
    12     5    14    1
    13    14    15   ar
    14    15    16   ar
    15    16    17   ar
    16    17    20    1
    17    20    21    1
    18    20    22    1
    19    17    18   ar
    20    18    19   ar
    21     5     6   ar
    22     6     7    1
    23     7     8   ar
    24     8     9   ar
    25     9    10   ar
    26    10    11    1
    27    10    12   ar
    28    12    13   ar
    29     6     2   ar
    30    13     7   ar
    31    29    24    1
    32    19    14   ar
@<TRIPOS>MOLECULE
*****
 29 32 0 0 0
SMALL
GASTEIGER

@<TRIPOS>ATOM
      1 C         141.1581  144.9066  158.7761 C.3     1  UNL1        0.0501
      2 C         140.3636  143.8458  159.4785 C.ar    1  UNL1        0.0391
      3 C         139.2736  143.0133  158.8711 C.ar    1  UNL1        0.0073
      4 C         138.7559  142.0842  159.9288 C.ar    1  UNL1        0.0157
      5 C         139.5259  142.3425  161.1899 C.ar    1  UNL1        0.0634
      6 N         140.5195  143.4312  160.9116 N.ar    1  UNL1       -0.3101
      7 C         141.4974  144.0047  161.8939 C.ar    1  UNL1        0.0638
      8 C         142.9471  143.6274  161.8164 C.ar    1  UNL1        0.0198
      9 C         143.9250  144.2008  162.7987 C.ar    1  UNL1        0.0311
     10 C         143.4531  145.1516  163.8586 C.ar    1  UNL1        0.1402
     11 F         144.4309  145.7251  164.8410 F       1  UNL1       -0.2042
     12 C         142.0034  145.5289  163.9362 C.ar    1  UNL1        0.0311
     13 C         141.0255  144.9554  162.9538 C.ar    1  UNL1        0.0198
     14 C         139.3357  141.6361  162.4994 C.ar    1  UNL1        0.0161
     15 C         140.0965  140.3764  162.7895 C.ar    1  UNL1        0.0011
     16 C         139.9063  139.6700  164.0990 C.ar    1  UNL1       -0.0042
     17 C         138.9553  140.2233  165.1184 C.ar    1  UNL1       -0.0225
     18 C         138.1944  141.4830  164.8284 C.ar    1  UNL1       -0.0042
     19 C         138.3846  142.1894  163.5189 C.ar    1  UNL1        0.0011
     20 C         138.7651  139.5169  166.4279 C.3     1  UNL1        0.0224
     21 C         139.5186  139.9724  167.6422 C.3     1  UNL1        0.0047
     22 C         137.8213  138.3549  166.5231 C.3     1  UNL1        0.0047
     23 C         138.7869  143.0955  157.4547 C.3     1  UNL1        0.1004
     24 N         138.2565  141.8698  156.7715 N.3     1  UNL1       -0.2646
     25 C         136.7992  141.7729  156.4299 C.3     1  UNL1        0.1049
     26 C         136.2690  140.5473  155.7468 C.3     1  UNL1        0.1595
     27 O         137.1960  139.4186  155.4053 O.3     1  UNL1       -0.3508
     28 C         138.6533  139.5155  155.7470 C.3     1  UNL1        0.1595
     29 C         139.1836  140.7411  156.4301 C.3     1  UNL1        0.1049
@<TRIPOS>BOND
     1     1     2    1
     2     2     3   ar
     3     3    23    1
     4    23    24    1
     5    24    25    1
     6    25    26    1
     7    26    27    1
     8    27    28    1
     9    28    29    1
    10     3     4   ar
    11     4     5   ar
    12     5    14    1
    13    14    15   ar
    14    15    16   ar
    15    16    17   ar
    16    17    20    1
    17    20    21    1
    18    20    22    1
    19    17    18   ar
    20    18    19   ar
    21     5     6   ar
    22     6     7    1
    23     7     8   ar
    24     8     9   ar
    25     9    10   ar
    26    10    11    1
    27    10    12   ar
    28    12    13   ar
    29     6     2   ar
    30    13     7   ar
    31    29    24    1
    32    19    14   ar
@<TRIPOS>MOLECULE
*****
 29 32 0 0 0
SMALL
GASTEIGER

@<TRIPOS>ATOM
      1 C         141.5102  141.0836  160.5681 C.3     1  UNL1        0.0501
      2 C         140.7135  141.4446  161.7866 C.ar    1  UNL1        0.0391
      3 C         139.3652  142.1018  161.7957 C.ar    1  UNL1        0.0073
      4 C         138.9437  142.2752  163.2248 C.ar    1  UNL1        0.0157
      5 C         140.0314  141.7252  164.0990 C.ar    1  UNL1        0.0634
      6 N         141.1253  141.2119  163.2101 N.ar    1  UNL1       -0.3101
      7 C         142.4061  140.5772  163.6649 C.ar    1  UNL1        0.0638
      8 C         142.3758  139.2695  164.3990 C.ar    1  UNL1        0.0198
      9 C         143.6565  138.6347  164.8538 C.ar    1  UNL1        0.0311
     10 C         144.9676  139.3078  164.5745 C.ar    1  UNL1        0.1402
     11 F         146.2484  138.6731  165.0293 F       1  UNL1       -0.2042
     12 C         144.9979  140.6155  163.8404 C.ar    1  UNL1        0.0311
     13 C         143.7172  141.2502  163.3856 C.ar    1  UNL1        0.0198
     14 C         140.0263  141.6940  165.5986 C.ar    1  UNL1        0.0161
     15 C         140.5071  142.8838  166.3752 C.ar    1  UNL1        0.0011
     16 C         140.5020  142.8526  167.8748 C.ar    1  UNL1       -0.0042
     17 C         140.0161  141.6316  168.5979 C.ar    1  UNL1       -0.0225
     18 C         139.5352  140.4417  167.8214 C.ar    1  UNL1       -0.0042
     19 C         139.5404  140.4729  166.3217 C.ar    1  UNL1        0.0011
     20 C         140.0109  141.6004  170.0976 C.3     1  UNL1        0.0224
     21 C         140.3657  140.3362  170.8226 C.3     1  UNL1        0.0047
     22 C         139.6511  142.8335  170.8722 C.3     1  UNL1        0.0047
     23 C         138.5768  142.5134  160.5878 C.3     1  UNL1        0.1004
     24 N         139.1988  143.4051  159.5543 N.3     1  UNL1       -0.2646
     25 C         140.0365  144.5746  159.9789 C.3     1  UNL1        0.1049
     26 C         140.6584  145.4663  158.9454 C.3     1  UNL1        0.1595
     27 O         140.4426  145.1883  157.4873 O.3     1  UNL1       -0.3508
     28 C         139.6050  144.0188  157.0626 C.3     1  UNL1        0.1595
     29 C         138.9831  143.1271  158.0961 C.3     1  UNL1        0.1049
@<TRIPOS>BOND
     1     1     2    1
     2     2     3   ar
     3     3    23    1
     4    23    24    1
     5    24    25    1
     6    25    26    1
     7    26    27    1
     8    27    28    1
     9    28    29    1
    10     3     4   ar
    11     4     5   ar
    12     5    14    1
    13    14    15   ar
    14    15    16   ar
    15    16    17   ar
    16    17    20    1
    17    20    21    1
    18    20    22    1
    19    17    18   ar
    20    18    19   ar
    21     5     6   ar
    22     6     7    1
    23     7     8   ar
    24     8     9   ar
    25     9    10   ar
    26    10    11    1
    27    10    12   ar
    28    12    13   ar
    29     6     2   ar
    30    13     7   ar
    31    29    24    1
    32    19    14   ar
