@<TRIPOS>MOLECULE
*****
 17 19 0 0 0
SMALL
GASTEIGER

@<TRIPOS>ATOM
      1 N         138.5553  140.5106  170.2116 N.pl3   1  UNL1       -0.3572
      2 C         139.6157  140.5103  169.1508 C.ar    1  UNL1        0.0400
      3 C         139.3873  139.7773  167.8622 C.ar    1  UNL1        0.0043
      4 C         140.4477  139.7770  166.8013 C.ar    1  UNL1        0.0561
      5 N         141.7366  140.5097  167.0290 N.ar    1  UNL1       -0.2499
      6 C         141.9651  141.2427  168.3176 C.ar    1  UNL1        0.0820
      7 C         143.2540  141.9754  168.5453 C.ar    1  UNL1        0.0191
      8 C         143.4824  142.7084  169.8339 C.ar    1  UNL1        0.0015
      9 C         142.4220  142.7087  170.8948 C.ar    1  UNL1        0.0001
     10 C         141.1331  141.9760  170.6671 C.ar    1  UNL1        0.0027
     11 C         140.9046  141.2430  169.3785 C.ar    1  UNL1        0.0303
     12 C         140.2192  139.0439  165.5127 C.3     1  UNL1        0.0455
     13 C         138.9303  138.3112  165.2850 C.3     1  UNL1        0.0066
     14 C         137.8699  138.3115  166.3459 C.3     1  UNL1        0.0052
     15 C         138.0983  139.0445  167.6344 C.3     1  UNL1        0.0288
     16 H         137.7093  140.0297  170.0622 H       1  UNL1        0.1423
     17 H         138.7052  140.9917  171.0574 H       1  UNL1        0.1423
@<TRIPOS>BOND
     1     1     2    1
     2     2     3   ar
     3     3     4   ar
     4     4     5   ar
     5     5     6   ar
     6     6     7   ar
     7     7     8   ar
     8     8     9   ar
     9     9    10   ar
    10    10    11   ar
    11     4    12    1
    12    12    13    1
    13    13    14    1
    14    14    15    1
    15    11     2   ar
    16    15     3    1
    17    11     6   ar
    18     1    16    1
    19     1    17    1
@<TRIPOS>MOLECULE
*****
 17 19 0 0 0
SMALL
GASTEIGER

@<TRIPOS>ATOM
      1 N         138.5972  140.6042  170.2167 N.pl3   1  UNL1       -0.3572
      2 C         139.6492  140.5606  169.1483 C.ar    1  UNL1        0.0400
      3 C         140.9512  141.2781  169.3480 C.ar    1  UNL1        0.0043
      4 C         142.0032  141.2346  168.2796 C.ar    1  UNL1        0.0561
      5 N         141.7531  140.4736  167.0115 N.ar    1  UNL1       -0.2499
      6 C         140.4511  139.7560  166.8117 C.ar    1  UNL1        0.0820
      7 C         140.2010  138.9950  165.5435 C.ar    1  UNL1        0.0191
      8 C         138.8990  138.2775  165.3437 C.ar    1  UNL1        0.0015
      9 C         137.8471  138.3211  166.4121 C.ar    1  UNL1        0.0001
     10 C         138.0971  139.0821  167.6803 C.ar    1  UNL1        0.0027
     11 C         139.3991  139.7996  167.8801 C.ar    1  UNL1        0.0303
     12 C         143.3052  141.9522  168.4794 C.3     1  UNL1        0.0455
     13 C         143.5553  142.7132  169.7476 C.3     1  UNL1        0.0066
     14 C         142.5033  142.7567  170.8160 C.3     1  UNL1        0.0052
     15 C         141.2013  142.0392  170.6162 C.3     1  UNL1        0.0288
     16 H         138.7614  141.1037  171.0490 H       1  UNL1        0.1423
     17 H         137.7427  140.1332  170.0856 H       1  UNL1        0.1423
@<TRIPOS>BOND
     1     1     2    1
     2     2     3   ar
     3     3     4   ar
     4     4     5   ar
     5     5     6   ar
     6     6     7   ar
     7     7     8   ar
     8     8     9   ar
     9     9    10   ar
    10    10    11   ar
    11     4    12    1
    12    12    13    1
    13    13    14    1
    14    14    15    1
    15    11     2   ar
    16    15     3    1
    17    11     6   ar
    18     1    16    1
    19     1    17    1
@<TRIPOS>MOLECULE
*****
 17 19 0 0 0
SMALL
GASTEIGER

@<TRIPOS>ATOM
      1 N         137.4163  140.3275  162.5868 N.pl3   1  UNL1       -0.3572
      2 C         138.5180  140.5990  163.5678 C.ar    1  UNL1        0.0400
      3 C         138.6290  141.9468  164.2168 C.ar    1  UNL1        0.0043
      4 C         139.7307  142.2183  165.1979 C.ar    1  UNL1        0.0561
      5 N         140.7214  141.1421  165.5299 N.ar    1  UNL1       -0.2499
      6 C         140.6104  139.7943  164.8809 C.ar    1  UNL1        0.0820
      7 C         141.6011  138.7181  165.2130 C.ar    1  UNL1        0.0191
      8 C         141.4901  137.3704  164.5640 C.ar    1  UNL1        0.0015
      9 C         140.3884  137.0988  163.5830 C.ar    1  UNL1        0.0001
     10 C         139.3977  138.1750  163.2509 C.ar    1  UNL1        0.0027
     11 C         139.5087  139.5227  163.8999 C.ar    1  UNL1        0.0303
     12 C         139.8417  143.5661  165.8469 C.3     1  UNL1        0.0455
     13 C         138.8511  144.6423  165.5148 C.3     1  UNL1        0.0066
     14 C         137.7493  144.3708  164.5337 C.3     1  UNL1        0.0052
     15 C         137.6383  143.0230  163.8848 C.3     1  UNL1        0.0288
     16 H         136.7660  141.0338  162.3688 H       1  UNL1        0.1423
     17 H         137.3434  139.4429  162.1608 H       1  UNL1        0.1423
@<TRIPOS>BOND
     1     1     2    1
     2     2     3   ar
     3     3     4   ar
     4     4     5   ar
     5     5     6   ar
     6     6     7   ar
     7     7     8   ar
     8     8     9   ar
     9     9    10   ar
    10    10    11   ar
    11     4    12    1
    12    12    13    1
    13    13    14    1
    14    14    15    1
    15    11     2   ar
    16    15     3    1
    17    11     6   ar
    18     1    16    1
    19     1    17    1
@<TRIPOS>MOLECULE
*****
 17 19 0 0 0
SMALL
GASTEIGER

@<TRIPOS>ATOM
      1 N         137.3516  140.2900  162.7008 N.pl3   1  UNL1       -0.3572
      2 C         138.4758  140.5914  163.6471 C.ar    1  UNL1        0.0400
      3 C         139.4760  139.5265  163.9869 C.ar    1  UNL1        0.0043
      4 C         140.6002  139.8280  164.9331 C.ar    1  UNL1        0.0561
      5 N         140.7242  141.1943  165.5395 N.ar    1  UNL1       -0.2499
      6 C         139.7239  142.2593  165.1997 C.ar    1  UNL1        0.0820
      7 C         139.8479  143.6256  165.8061 C.ar    1  UNL1        0.0191
      8 C         138.8477  144.6905  165.4663 C.ar    1  UNL1        0.0015
      9 C         137.7235  144.3890  164.5201 C.ar    1  UNL1        0.0001
     10 C         137.5995  143.0227  163.9136 C.ar    1  UNL1        0.0027
     11 C         138.5998  141.9578  164.2535 C.ar    1  UNL1        0.0303
     12 C         141.6005  138.7630  165.2730 C.3     1  UNL1        0.0455
     13 C         141.4765  137.3967  164.6666 C.3     1  UNL1        0.0066
     14 C         140.3523  137.0952  163.7203 C.3     1  UNL1        0.0052
     15 C         139.3521  138.1601  163.3805 C.3     1  UNL1        0.0288
     16 H         137.2703  139.3932  162.3028 H       1  UNL1        0.1423
     17 H         136.6952  140.9890  162.4778 H       1  UNL1        0.1423
@<TRIPOS>BOND
     1     1     2    1
     2     2     3   ar
     3     3     4   ar
     4     4     5   ar
     5     5     6   ar
     6     6     7   ar
     7     7     8   ar
     8     8     9   ar
     9     9    10   ar
    10    10    11   ar
    11     4    12    1
    12    12    13    1
    13    13    14    1
    14    14    15    1
    15    11     2   ar
    16    15     3    1
    17    11     6   ar
    18     1    16    1
    19     1    17    1
@<TRIPOS>MOLECULE
*****
 17 19 0 0 0
SMALL
GASTEIGER

@<TRIPOS>ATOM
      1 N         142.2296  137.6290  162.9767 N.pl3   1  UNL1       -0.3572
      2 C         142.0063  138.7396  163.9599 C.ar    1  UNL1        0.0400
      3 C         143.0208  139.8361  164.0959 C.ar    1  UNL1        0.0043
      4 C         142.7975  140.9467  165.0791 C.ar    1  UNL1        0.0561
      5 N         141.5597  140.9608  165.9263 N.ar    1  UNL1       -0.2499
      6 C         140.5452  139.8643  165.7903 C.ar    1  UNL1        0.0820
      7 C         139.3074  139.8784  166.6374 C.ar    1  UNL1        0.0191
      8 C         138.2930  138.7819  166.5014 C.ar    1  UNL1        0.0015
      9 C         138.5163  137.6713  165.5182 C.ar    1  UNL1        0.0001
     10 C         139.7540  137.6572  164.6710 C.ar    1  UNL1        0.0027
     11 C         140.7685  138.7537  164.8071 C.ar    1  UNL1        0.0303
     12 C         143.8120  142.0433  165.2152 C.3     1  UNL1        0.0455
     13 C         145.0498  142.0291  164.3680 C.3     1  UNL1        0.0066
     14 C         145.2731  140.9185  163.3848 C.3     1  UNL1        0.0052
     15 C         144.2586  139.8221  163.2487 C.3     1  UNL1        0.0288
     16 H         143.0420  137.6198  162.4207 H       1  UNL1        0.1423
     17 H         141.5638  136.9094  162.8874 H       1  UNL1        0.1423
@<TRIPOS>BOND
     1     1     2    1
     2     2     3   ar
     3     3     4   ar
     4     4     5   ar
     5     5     6   ar
     6     6     7   ar
     7     7     8   ar
     8     8     9   ar
     9     9    10   ar
    10    10    11   ar
    11     4    12    1
    12    12    13    1
    13    13    14    1
    14    14    15    1
    15    11     2   ar
    16    15     3    1
    17    11     6   ar
    18     1    16    1
    19     1    17    1
@<TRIPOS>MOLECULE
*****
 17 19 0 0 0
SMALL
GASTEIGER

@<TRIPOS>ATOM
      1 N         142.2277  137.6298  162.9859 N.pl3   1  UNL1       -0.3572
      2 C         142.0065  138.7439  163.9656 C.ar    1  UNL1        0.0400
      3 C         140.7704  138.7614  164.8150 C.ar    1  UNL1        0.0043
      4 C         140.5493  139.8755  165.7948 C.ar    1  UNL1        0.0561
      5 N         141.5643  140.9721  165.9251 N.ar    1  UNL1       -0.2499
      6 C         142.8006  140.9547  165.0757 C.ar    1  UNL1        0.0820
      7 C         143.8156  142.0513  165.2060 C.ar    1  UNL1        0.0191
      8 C         145.0518  142.0338  164.3566 C.ar    1  UNL1        0.0015
      9 C         145.2729  140.9197  163.3768 C.ar    1  UNL1        0.0001
     10 C         144.2578  139.8231  163.2465 C.ar    1  UNL1        0.0027
     11 C         143.0217  139.8406  164.0959 C.ar    1  UNL1        0.0303
     12 C         139.3130  139.8929  166.6442 C.3     1  UNL1        0.0455
     13 C         138.2980  138.7963  166.5139 C.3     1  UNL1        0.0066
     14 C         138.5191  137.6822  165.5342 C.3     1  UNL1        0.0052
     15 C         139.7552  137.6647  164.6847 C.3     1  UNL1        0.0288
     16 H         141.5614  136.9100  162.9004 H       1  UNL1        0.1423
     17 H         143.0390  137.6183  162.4284 H       1  UNL1        0.1423
@<TRIPOS>BOND
     1     1     2    1
     2     2     3   ar
     3     3     4   ar
     4     4     5   ar
     5     5     6   ar
     6     6     7   ar
     7     7     8   ar
     8     8     9   ar
     9     9    10   ar
    10    10    11   ar
    11     4    12    1
    12    12    13    1
    13    13    14    1
    14    14    15    1
    15    11     2   ar
    16    15     3    1
    17    11     6   ar
    18     1    16    1
    19     1    17    1
@<TRIPOS>MOLECULE
*****
 17 19 0 0 0
SMALL
GASTEIGER

@<TRIPOS>ATOM
      1 N         140.8382  142.6402  166.0130 N.pl3   1  UNL1       -0.3572
      2 C         141.3908  141.3713  165.4347 C.ar    1  UNL1        0.0400
      3 C         140.5419  140.1355  165.3897 C.ar    1  UNL1        0.0043
      4 C         141.0945  138.8666  164.8114 C.ar    1  UNL1        0.0561
      5 N         142.4960  138.8334  164.2780 N.ar    1  UNL1       -0.2499
      6 C         143.3451  140.0693  164.3230 C.ar    1  UNL1        0.0820
      7 C         144.7466  140.0361  163.7896 C.ar    1  UNL1        0.0191
      8 C         145.5955  141.2719  163.8345 C.ar    1  UNL1        0.0015
      9 C         145.0429  142.5408  164.4129 C.ar    1  UNL1        0.0001
     10 C         143.6414  142.5740  164.9462 C.ar    1  UNL1        0.0027
     11 C         142.7925  141.3382  164.9013 C.ar    1  UNL1        0.0303
     12 C         140.2455  137.6307  164.7665 C.3     1  UNL1        0.0455
     13 C         138.8439  137.6639  165.2999 C.3     1  UNL1        0.0066
     14 C         138.2913  138.9328  165.8782 C.3     1  UNL1        0.0052
     15 C         139.1403  140.1686  165.9231 C.3     1  UNL1        0.0288
     16 H         139.9183  142.6619  166.3631 H       1  UNL1        0.1423
     17 H         141.3955  143.4513  166.0425 H       1  UNL1        0.1423
@<TRIPOS>BOND
     1     1     2    1
     2     2     3   ar
     3     3     4   ar
     4     4     5   ar
     5     5     6   ar
     6     6     7   ar
     7     7     8   ar
     8     8     9   ar
     9     9    10   ar
    10    10    11   ar
    11     4    12    1
    12    12    13    1
    13    13    14    1
    14    14    15    1
    15    11     2   ar
    16    15     3    1
    17    11     6   ar
    18     1    16    1
    19     1    17    1
@<TRIPOS>MOLECULE
*****
 17 19 0 0 0
SMALL
GASTEIGER

@<TRIPOS>ATOM
      1 N         142.8480  145.0680  162.4895 N.pl3   1  UNL1       -0.3572
      2 C         142.4002  143.8561  163.2515 C.ar    1  UNL1        0.0400
      3 C         143.3705  142.7480  163.5357 C.ar    1  UNL1        0.0043
      4 C         142.9227  141.5361  164.2977 C.ar    1  UNL1        0.0561
      5 N         141.5046  141.4321  164.7754 N.ar    1  UNL1       -0.2499
      6 C         140.5343  142.5402  164.4912 C.ar    1  UNL1        0.0820
      7 C         139.1162  142.4362  164.9689 C.ar    1  UNL1        0.0191
      8 C         138.1460  143.5442  164.6847 C.ar    1  UNL1        0.0015
      9 C         138.5938  144.7562  163.9227 C.ar    1  UNL1        0.0001
     10 C         140.0118  144.8602  163.4449 C.ar    1  UNL1        0.0027
     11 C         140.9821  143.7521  163.7292 C.ar    1  UNL1        0.0303
     12 C         143.8930  140.4280  164.5819 C.3     1  UNL1        0.0455
     13 C         145.3111  140.5320  164.1042 C.3     1  UNL1        0.0066
     14 C         145.7589  141.7439  163.3422 C.3     1  UNL1        0.0052
     15 C         144.7886  142.8520  163.0580 C.3     1  UNL1        0.0288
     16 H         143.7787  145.1362  162.1759 H       1  UNL1        0.1423
     17 H         142.2112  145.7953  162.3029 H       1  UNL1        0.1423
@<TRIPOS>BOND
     1     1     2    1
     2     2     3   ar
     3     3     4   ar
     4     4     5   ar
     5     5     6   ar
     6     6     7   ar
     7     7     8   ar
     8     8     9   ar
     9     9    10   ar
    10    10    11   ar
    11     4    12    1
    12    12    13    1
    13    13    14    1
    14    14    15    1
    15    11     2   ar
    16    15     3    1
    17    11     6   ar
    18     1    16    1
    19     1    17    1
@<TRIPOS>MOLECULE
*****
 17 19 0 0 0
SMALL
GASTEIGER

@<TRIPOS>ATOM
      1 N         140.8206  142.5755  166.1903 N.pl3   1  UNL1       -0.3572
      2 C         141.3495  141.3165  165.5697 C.ar    1  UNL1        0.0400
      3 C         142.7426  141.2818  165.0148 C.ar    1  UNL1        0.0043
      4 C         143.2715  140.0228  164.3941 C.ar    1  UNL1        0.0561
      5 N         142.4074  138.7986  164.3285 N.ar    1  UNL1       -0.2499
      6 C         141.0142  138.8333  164.8834 C.ar    1  UNL1        0.0820
      7 C         140.1500  137.6090  164.8178 C.ar    1  UNL1        0.0191
      8 C         138.7569  137.6437  165.3727 C.ar    1  UNL1        0.0015
      9 C         138.2280  138.9027  165.9933 C.ar    1  UNL1        0.0001
     10 C         139.0922  140.1270  166.0590 C.ar    1  UNL1        0.0027
     11 C         140.4853  140.0922  165.5041 C.ar    1  UNL1        0.0303
     12 C         144.6647  139.9881  163.8392 C.3     1  UNL1        0.0455
     13 C         145.5289  141.2124  163.9048 C.3     1  UNL1        0.0066
     14 C         145.0000  142.4714  164.5255 C.3     1  UNL1        0.0052
     15 C         143.6069  142.5061  165.0804 C.3     1  UNL1        0.0288
     16 H         141.3878  143.3791  166.2334 H       1  UNL1        0.1423
     17 H         139.9062  142.5983  166.5546 H       1  UNL1        0.1423
@<TRIPOS>BOND
     1     1     2    1
     2     2     3   ar
     3     3     4   ar
     4     4     5   ar
     5     5     6   ar
     6     6     7   ar
     7     7     8   ar
     8     8     9   ar
     9     9    10   ar
    10    10    11   ar
    11     4    12    1
    12    12    13    1
    13    13    14    1
    14    14    15    1
    15    11     2   ar
    16    15     3    1
    17    11     6   ar
    18     1    16    1
    19     1    17    1
