@<TRIPOS>MOLECULE
*****
 36 40 0 0 0
SMALL
GASTEIGER

@<TRIPOS>ATOM
      1 C         140.6639  139.8175  160.2531 C.ar    1  UNL1        0.0659
      2 C         139.8116  138.5919  160.1065 C.ar    1  UNL1        0.0159
      3 C         139.1755  137.9719  161.3151 C.ar    1  UNL1        0.0014
      4 C         139.3916  138.5774  162.6703 C.ar    1  UNL1        0.0032
      5 C         138.6706  137.8067  163.7362 C.ar    1  UNL1        0.0016
      6 C         138.6238  138.0712  165.2120 C.ar    1  UNL1        0.0192
      7 C         139.2864  139.1719  165.9863 C.ar    1  UNL1        0.0844
      8 N         138.9809  139.0719  167.4515 N.ar    1  UNL1       -0.2437
      9 C         139.5484  140.0798  168.4064 C.ar    1  UNL1        0.0989
     10 C         140.4215  141.1877  167.8962 C.ar    1  UNL1        0.0223
     11 C         140.7271  141.2877  166.4311 C.ar    1  UNL1        0.0063
     12 C         140.1595  140.2797  165.4761 C.ar    1  UNL1        0.0566
     13 C         140.5856  140.5607  164.0655 C.ar    1  UNL1        0.1970
     14 O         141.4705  141.7574  163.8791 O.2     1  UNL1       -0.2865
     15 C         140.2438  139.8030  162.8169 C.ar    1  UNL1        0.0403
     16 C         140.8800  140.4231  161.6083 C.ar    1  UNL1        0.0191
     17 C         140.9891  142.1957  168.8512 C.ar    1  UNL1        0.0411
     18 C         140.2542  143.3627  169.4411 C.ar    1  UNL1        0.1217
     19 N         141.2022  144.1018  170.3383 N.ar    1  UNL1       -0.1676
     20 N         142.5230  143.3917  170.3029 N.ar    1  UNL1       -0.2473
     21 C         143.7585  143.7897  171.0546 C.3     1  UNL1        0.1538
     22 C         142.3913  142.2136  169.3838 C.ar    1  UNL1        0.0967
     23 N         141.3001  140.4376  159.0444 N.pl3   1  UNL1       -0.2052
     24 H         141.5357  139.8772  158.2700 H       1  UNL1        0.1748
     25 S         141.5772  141.9115  159.0156 S.O2    1  UNL1        0.1131
     26 O         140.1062  142.1861  158.9128 O.2     1  UNL1       -0.1379
     27 O         143.0482  141.6369  159.1185 O.2     1  UNL1       -0.1379
     28 C         142.7602  143.9579  157.9373 C.3     1  UNL1        0.1164
     29 N         141.8543  143.3854  158.9869 N.3     1  UNL1       -0.1388
     30 C         141.2256  144.2868  160.0077 C.3     1  UNL1        0.1292
     31 C         141.9075  144.5209  161.3230 C.3     1  UNL1        0.1625
     32 C         141.1467  145.1270  162.4649 C.3     1  UNL1        0.1731
     33 O         141.8288  145.3611  163.7803 O.3     1  UNL1       -0.3485
     34 C         143.2715  144.9891  163.9537 C.3     1  UNL1        0.1742
     35 C         144.0323  144.3831  162.8118 C.3     1  UNL1        0.1742
     36 O         143.3503  144.1490  161.4965 O.3     1  UNL1       -0.3495
@<TRIPOS>BOND
     1    28    29    1
     2    29    30    1
     3    31    30    1
     4    31    32    1
     5    32    33    1
     6    33    34    1
     7    34    35    1
     8    35    36    1
     9    29    25    1
    10    25    26    2
    11    25    27    2
    12    25    23    1
    13    23     1    1
    14     1     2   ar
    15     2     3   ar
    16     3     4   ar
    17     4     5   ar
    18     5     6   ar
    19     6     7   ar
    20     7     8   ar
    21     8     9   ar
    22     9    10   ar
    23    10    17    1
    24    17    18   ar
    25    18    19   ar
    26    19    20   ar
    27    20    21    1
    28    20    22   ar
    29    10    11   ar
    30    11    12   ar
    31    12    13   ar
    32    13    14    2
    33    13    15   ar
    34    15    16   ar
    35    36    31    1
    36    16     1   ar
    37    15     4   ar
    38    12     7   ar
    39    22    17   ar
    40    23    24    1
@<TRIPOS>MOLECULE
*****
 36 40 0 0 0
SMALL
GASTEIGER

@<TRIPOS>ATOM
      1 C         139.8169  140.5420  161.1624 C.ar    1  UNL1        0.0659
      2 C         138.7051  139.5357  161.1929 C.ar    1  UNL1        0.0159
      3 C         138.2051  139.0099  162.5057 C.ar    1  UNL1        0.0014
      4 C         138.8171  139.4904  163.7881 C.ar    1  UNL1        0.0032
      5 C         138.1744  138.8426  164.9785 C.ar    1  UNL1        0.0016
      6 C         138.4848  139.0410  166.4327 C.ar    1  UNL1        0.0192
      7 C         139.5146  139.9364  167.0553 C.ar    1  UNL1        0.0844
      8 N         139.4960  139.8351  168.5518 N.ar    1  UNL1       -0.2437
      9 C         140.4511  140.6519  169.3707 C.ar    1  UNL1        0.0989
     10 C         141.4248  141.5699  168.6931 C.ar    1  UNL1        0.0223
     11 C         141.4435  141.6712  167.1967 C.ar    1  UNL1        0.0063
     12 C         140.4883  140.8544  166.3778 C.ar    1  UNL1        0.0566
     13 C         140.6727  141.1038  164.9101 C.ar    1  UNL1        0.1970
     14 O         141.7423  142.0908  164.5471 O.2     1  UNL1       -0.2865
     15 C         139.9289  140.4968  163.7577 C.ar    1  UNL1        0.0403
     16 C         140.4288  141.0226  162.4449 C.ar    1  UNL1        0.0191
     17 C         142.3800  142.3868  169.5121 C.ar    1  UNL1        0.0411
     18 C         142.0057  143.4054  170.5476 C.ar    1  UNL1        0.1217
     19 N         143.2715  143.9765  171.1146 N.ar    1  UNL1       -0.1676
     20 N         144.4281  143.3108  170.4296 N.ar    1  UNL1       -0.2473
     21 C         145.8807  143.5803  170.6894 C.3     1  UNL1        0.1538
     22 C         143.8771  142.3283  169.4392 C.ar    1  UNL1        0.0967
     23 N         140.3169  141.0679  159.8496 N.pl3   1  UNL1       -0.2052
     24 H         140.6887  140.4485  159.1807 H       1  UNL1        0.1748
     25 S         140.2504  142.5373  159.5558 S.O2    1  UNL1        0.1131
     26 O         141.7325  142.6451  159.7594 O.2     1  UNL1       -0.1379
     27 O         138.7682  142.4295  159.3523 O.2     1  UNL1       -0.1379
     28 C         139.8357  144.4808  157.8822 C.3     1  UNL1        0.1164
     29 N         140.1839  144.0068  159.2621 N.3     1  UNL1       -0.1388
     30 C         140.4655  145.0022  160.3483 C.3     1  UNL1        0.1292
     31 C         139.8615  144.8185  161.7089 C.3     1  UNL1        0.1625
     32 C         140.6947  145.0430  162.9359 C.3     1  UNL1        0.1731
     33 O         140.0907  144.8592  164.2966 O.3     1  UNL1       -0.3485
     34 C         138.6535  144.4510  164.4303 C.3     1  UNL1        0.1742
     35 C         137.8204  144.2265  163.2033 C.3     1  UNL1        0.1742
     36 O         138.4243  144.4103  161.8427 O.3     1  UNL1       -0.3495
@<TRIPOS>BOND
     1    28    29    1
     2    29    30    1
     3    31    30    1
     4    31    32    1
     5    32    33    1
     6    33    34    1
     7    34    35    1
     8    35    36    1
     9    29    25    1
    10    25    26    2
    11    25    27    2
    12    25    23    1
    13    23     1    1
    14     1     2   ar
    15     2     3   ar
    16     3     4   ar
    17     4     5   ar
    18     5     6   ar
    19     6     7   ar
    20     7     8   ar
    21     8     9   ar
    22     9    10   ar
    23    10    17    1
    24    17    18   ar
    25    18    19   ar
    26    19    20   ar
    27    20    21    1
    28    20    22   ar
    29    10    11   ar
    30    11    12   ar
    31    12    13   ar
    32    13    14    2
    33    13    15   ar
    34    15    16   ar
    35    36    31    1
    36    16     1   ar
    37    15     4   ar
    38    12     7   ar
    39    22    17   ar
    40    23    24    1
@<TRIPOS>MOLECULE
*****
 36 40 0 0 0
SMALL
GASTEIGER

@<TRIPOS>ATOM
      1 C         140.6768  139.7912  160.2358 C.ar    1  UNL1        0.0659
      2 C         139.8152  138.5721  160.0893 C.ar    1  UNL1        0.0159
      3 C         139.1703  137.9600  161.2972 C.ar    1  UNL1        0.0014
      4 C         139.3869  138.5668  162.6518 C.ar    1  UNL1        0.0032
      5 C         138.6564  137.8043  163.7171 C.ar    1  UNL1        0.0016
      6 C         138.6070  138.0726  165.1921 C.ar    1  UNL1        0.0192
      7 C         139.2760  139.1696  165.9660 C.ar    1  UNL1        0.0844
      8 N         138.9650  139.0754  167.4305 N.ar    1  UNL1       -0.2437
      9 C         139.5375  140.0809  168.3849 C.ar    1  UNL1        0.0989
     10 C         140.4211  141.1806  167.8751 C.ar    1  UNL1        0.0223
     11 C         140.7321  141.2748  166.4107 C.ar    1  UNL1        0.0063
     12 C         140.1595  140.2693  165.4562 C.ar    1  UNL1        0.0566
     13 C         140.5923  140.5436  164.0464 C.ar    1  UNL1        0.1970
     14 O         141.4873  141.7328  163.8601 O.2     1  UNL1       -0.2865
     15 C         140.2485  139.7859  162.7983 C.ar    1  UNL1        0.0403
     16 C         140.8934  140.3981  161.5904 C.ar    1  UNL1        0.0191
     17 C         140.9937  142.1862  168.8296 C.ar    1  UNL1        0.0411
     18 C         140.2635  143.3550  169.4219 C.ar    1  UNL1        0.1217
     19 N         141.2156  144.0906  170.3176 N.ar    1  UNL1       -0.1676
     20 N         142.5342  143.3765  170.2790 N.ar    1  UNL1       -0.2473
     21 C         143.7725  143.7702  171.0284 C.3     1  UNL1        0.1538
     22 C         142.3970  142.1995  169.3593 C.ar    1  UNL1        0.0967
     23 N         141.3218  140.4035  159.0278 N.pl3   1  UNL1       -0.2052
     24 H         141.1469  140.0299  158.1339 H       1  UNL1        0.1748
     25 S         142.2332  141.5848  159.1819 S.O2    1  UNL1        0.1131
     26 O         141.0549  142.5073  159.0791 O.2     1  UNL1       -0.1379
     27 O         143.4115  140.6623  159.2847 O.2     1  UNL1       -0.1379
     28 C         142.8569  144.0372  158.5931 C.3     1  UNL1        0.1164
     29 N         143.1446  142.7662  159.3359 N.3     1  UNL1       -0.1388
     30 C         144.3435  142.6766  160.2328 C.3     1  UNL1        0.1292
     31 C         144.2538  143.1474  161.6541 C.3     1  UNL1        0.1625
     32 C         144.8654  142.3317  162.7544 C.3     1  UNL1        0.1731
     33 O         144.7755  142.8026  164.1758 O.3     1  UNL1       -0.3485
     34 C         144.0742  144.0890  164.4968 C.3     1  UNL1        0.1742
     35 C         143.4626  144.9047  163.3965 C.3     1  UNL1        0.1742
     36 O         143.5524  144.4339  161.9752 O.3     1  UNL1       -0.3495
@<TRIPOS>BOND
     1    28    29    1
     2    29    30    1
     3    31    30    1
     4    31    32    1
     5    32    33    1
     6    33    34    1
     7    34    35    1
     8    35    36    1
     9    29    25    1
    10    25    26    2
    11    25    27    2
    12    25    23    1
    13    23     1    1
    14     1     2   ar
    15     2     3   ar
    16     3     4   ar
    17     4     5   ar
    18     5     6   ar
    19     6     7   ar
    20     7     8   ar
    21     8     9   ar
    22     9    10   ar
    23    10    17    1
    24    17    18   ar
    25    18    19   ar
    26    19    20   ar
    27    20    21    1
    28    20    22   ar
    29    10    11   ar
    30    11    12   ar
    31    12    13   ar
    32    13    14    2
    33    13    15   ar
    34    15    16   ar
    35    36    31    1
    36    16     1   ar
    37    15     4   ar
    38    12     7   ar
    39    22    17   ar
    40    23    24    1
@<TRIPOS>MOLECULE
*****
 36 40 0 0 0
SMALL
GASTEIGER

@<TRIPOS>ATOM
      1 C         142.2480  144.1492  159.8169 C.ar    1  UNL1        0.0659
      2 C         143.1515  143.3191  158.9540 C.ar    1  UNL1        0.0159
      3 C         143.6717  142.0058  159.4585 C.ar    1  UNL1        0.0014
      4 C         143.2886  141.5227  160.8259 C.ar    1  UNL1        0.0032
      5 C         143.9137  140.1942  161.1328 C.ar    1  UNL1        0.0016
      6 C         143.7899  139.3677  162.3785 C.ar    1  UNL1        0.0192
      7 C         143.0103  139.6656  163.6248 C.ar    1  UNL1        0.0844
      8 N         143.1567  138.5693  164.6381 N.ar    1  UNL1       -0.2437
      9 C         142.4549  138.6709  165.9598 C.ar    1  UNL1        0.0989
     10 C         141.6066  139.8689  166.2683 C.ar    1  UNL1        0.0223
     11 C         141.4601  140.9652  165.2551 C.ar    1  UNL1        0.0063
     12 C         142.1620  140.8636  163.9333 C.ar    1  UNL1        0.0566
     13 C         141.8837  142.0596  163.0717 C.ar    1  UNL1        0.1970
     14 O         140.9853  143.0996  163.6725 O.2     1  UNL1       -0.2865
     15 C         142.3851  142.3528  161.6888 C.ar    1  UNL1        0.0403
     16 C         141.8649  143.6661  161.1843 C.ar    1  UNL1        0.0191
     17 C         140.9047  139.9706  167.5901 C.ar    1  UNL1        0.0411
     18 C         139.4385  139.7616  167.8282 C.ar    1  UNL1        0.1217
     19 N         139.1735  139.9610  169.2911 N.ar    1  UNL1       -0.1676
     20 N         140.4758  140.2933  169.9571 N.ar    1  UNL1       -0.2473
     21 C         140.6735  140.5709  171.4179 C.3     1  UNL1        0.1538
     22 C         141.5457  140.2992  168.9058 C.ar    1  UNL1        0.0967
     23 N         141.7277  145.4626  159.3124 N.pl3   1  UNL1       -0.2052
     24 H         141.6856  146.2397  159.9153 H       1  UNL1        0.1748
     25 S         141.2716  145.5918  157.8893 S.O2    1  UNL1        0.1131
     26 O         140.0207  144.8336  158.2214 O.2     1  UNL1       -0.1379
     27 O         142.5224  146.3501  157.5572 O.2     1  UNL1       -0.1379
     28 C         141.7526  145.3841  155.3446 C.3     1  UNL1        0.1164
     29 N         140.8153  145.7211  156.4662 N.3     1  UNL1       -0.1388
     30 C         139.4219  146.1873  156.1647 C.3     1  UNL1        0.1292
     31 C         139.1230  147.6550  156.0846 C.3     1  UNL1        0.1625
     32 C         139.3676  148.4016  154.8068 C.3     1  UNL1        0.1731
     33 O         139.0686  149.8693  154.7267 O.3     1  UNL1       -0.3485
     34 C         138.5251  150.5905  155.9244 C.3     1  UNL1        0.1742
     35 C         138.2805  149.8439  157.2022 C.3     1  UNL1        0.1742
     36 O         138.5794  148.3762  157.2823 O.3     1  UNL1       -0.3495
@<TRIPOS>BOND
     1    28    29    1
     2    29    30    1
     3    31    30    1
     4    31    32    1
     5    32    33    1
     6    33    34    1
     7    34    35    1
     8    35    36    1
     9    29    25    1
    10    25    26    2
    11    25    27    2
    12    25    23    1
    13    23     1    1
    14     1     2   ar
    15     2     3   ar
    16     3     4   ar
    17     4     5   ar
    18     5     6   ar
    19     6     7   ar
    20     7     8   ar
    21     8     9   ar
    22     9    10   ar
    23    10    17    1
    24    17    18   ar
    25    18    19   ar
    26    19    20   ar
    27    20    21    1
    28    20    22   ar
    29    10    11   ar
    30    11    12   ar
    31    12    13   ar
    32    13    14    2
    33    13    15   ar
    34    15    16   ar
    35    36    31    1
    36    16     1   ar
    37    15     4   ar
    38    12     7   ar
    39    22    17   ar
    40    23    24    1
@<TRIPOS>MOLECULE
*****
 36 40 0 0 0
SMALL
GASTEIGER

@<TRIPOS>ATOM
      1 C         139.8205  142.4946  165.3517 C.ar    1  UNL1        0.0659
      2 C         139.0575  143.7841  165.4220 C.ar    1  UNL1        0.0159
      3 C         139.1232  144.7575  164.2827 C.ar    1  UNL1        0.0014
      4 C         139.9520  144.4413  163.0730 C.ar    1  UNL1        0.0032
      5 C         139.8800  145.5420  162.0565 C.ar    1  UNL1        0.0016
      6 C         140.5532  145.6251  160.7186 C.ar    1  UNL1        0.0192
      7 C         141.4647  144.6279  160.0669 C.ar    1  UNL1        0.0844
      8 N         141.9226  145.1027  158.7197 N.ar    1  UNL1       -0.2437
      9 C         142.8439  144.2511  157.8976 C.ar    1  UNL1        0.0989
     10 C         143.3073  142.9246  158.4227 C.ar    1  UNL1        0.0223
     11 C         142.8494  142.4497  159.7698 C.ar    1  UNL1        0.0063
     12 C         141.9280  143.3014  160.5920 C.ar    1  UNL1        0.0566
     13 C         141.5944  142.6445  161.8986 C.ar    1  UNL1        0.1970
     14 O         142.2233  141.3029  162.1317 O.2     1  UNL1       -0.2865
     15 C         140.7149  143.1518  163.0027 C.ar    1  UNL1        0.0403
     16 C         140.6492  142.1784  164.1420 C.ar    1  UNL1        0.0191
     17 C         144.2286  142.0728  157.6006 C.ar    1  UNL1        0.0411
     18 C         144.0884  140.5985  157.3622 C.ar    1  UNL1        0.1217
     19 N         145.2250  140.1605  156.4869 N.ar    1  UNL1       -0.1676
     20 N         146.0677  141.3639  156.1844 N.ar    1  UNL1       -0.2473
     21 C         147.3084  141.3823  155.3416 C.3     1  UNL1        0.1538
     22 C         145.4519  142.5458  156.8727 C.ar    1  UNL1        0.0967
     23 N         139.7548  141.5211  166.4911 N.pl3   1  UNL1       -0.2052
     24 H         139.9725  141.8170  167.4045 H       1  UNL1        0.1748
     25 S         139.3574  140.0969  166.2388 S.O2    1  UNL1        0.1131
     26 O         138.1003  140.5664  165.5686 O.2     1  UNL1       -0.1379
     27 O         140.6145  139.6274  166.9090 O.2     1  UNL1       -0.1379
     28 C         137.7253  138.1135  166.6291 C.3     1  UNL1        0.1164
     29 N         138.9599  138.6727  165.9864 N.3     1  UNL1       -0.1388
     30 C         139.7970  137.8077  165.0914 C.3     1  UNL1        0.1292
     31 C         139.7270  137.9795  163.6030 C.3     1  UNL1        0.1625
     32 C         140.9209  137.6579  162.7539 C.3     1  UNL1        0.1731
     33 O         140.8508  137.8297  161.2653 O.3     1  UNL1       -0.3485
     34 C         139.5868  138.3230  160.6260 C.3     1  UNL1        0.1742
     35 C         138.3928  138.6446  161.4751 C.3     1  UNL1        0.1742
     36 O         138.4629  138.4729  162.9636 O.3     1  UNL1       -0.3495
@<TRIPOS>BOND
     1    28    29    1
     2    29    30    1
     3    31    30    1
     4    31    32    1
     5    32    33    1
     6    33    34    1
     7    34    35    1
     8    35    36    1
     9    29    25    1
    10    25    26    2
    11    25    27    2
    12    25    23    1
    13    23     1    1
    14     1     2   ar
    15     2     3   ar
    16     3     4   ar
    17     4     5   ar
    18     5     6   ar
    19     6     7   ar
    20     7     8   ar
    21     8     9   ar
    22     9    10   ar
    23    10    17    1
    24    17    18   ar
    25    18    19   ar
    26    19    20   ar
    27    20    21    1
    28    20    22   ar
    29    10    11   ar
    30    11    12   ar
    31    12    13   ar
    32    13    14    2
    33    13    15   ar
    34    15    16   ar
    35    36    31    1
    36    16     1   ar
    37    15     4   ar
    38    12     7   ar
    39    22    17   ar
    40    23    24    1
@<TRIPOS>MOLECULE
*****
 36 40 0 0 0
SMALL
GASTEIGER

@<TRIPOS>ATOM
      1 C         141.0020  141.1104  159.2154 C.ar    1  UNL1        0.0659
      2 C         140.4350  139.8698  158.5912 C.ar    1  UNL1        0.0159
      3 C         139.7840  138.8278  159.4515 C.ar    1  UNL1        0.0014
      4 C         139.6998  139.0262  160.9359 C.ar    1  UNL1        0.0032
      5 C         139.0144  137.8720  161.6052 C.ar    1  UNL1        0.0016
      6 C         138.7267  137.6731  163.0639 C.ar    1  UNL1        0.0192
      7 C         139.0533  138.5795  164.2135 C.ar    1  UNL1        0.0844
      8 N         138.5876  138.0010  165.5168 N.ar    1  UNL1       -0.2437
      9 C         138.8169  138.7516  166.7951 C.ar    1  UNL1        0.0989
     10 C         139.5119  140.0807  166.7701 C.ar    1  UNL1        0.0223
     11 C         139.9776  140.6591  165.4668 C.ar    1  UNL1        0.0063
     12 C         139.7483  139.9085  164.1885 C.ar    1  UNL1        0.0566
     13 C         140.2883  140.6595  163.0076 C.ar    1  UNL1        0.1970
     14 O         140.9355  141.9773  163.3149 O.2     1  UNL1       -0.2865
     15 C         140.2667  140.2668  161.5601 C.ar    1  UNL1        0.0403
     16 C         140.9178  141.3088  160.6998 C.ar    1  UNL1        0.0191
     17 C         139.7412  140.8314  168.0484 C.ar    1  UNL1        0.0411
     18 C         139.3013  140.3992  169.4157 C.ar    1  UNL1        0.1217
     19 N         139.7390  141.4467  170.3960 N.ar    1  UNL1       -0.1676
     20 N         140.4493  142.5264  169.6346 N.ar    1  UNL1       -0.2473
     21 C         141.0524  143.7683  170.2211 C.3     1  UNL1        0.1538
     22 C         140.4507  142.1461  168.1836 C.ar    1  UNL1        0.0967
     23 N         141.6531  142.1525  158.3551 N.pl3   1  UNL1       -0.2052
     24 H         142.3302  141.8894  157.6906 H       1  UNL1        0.1748
     25 S         141.2726  143.5954  158.5073 S.O2    1  UNL1        0.1131
     26 O         142.6099  143.8831  159.1228 O.2     1  UNL1       -0.1379
     27 O         139.9354  143.3077  157.8918 O.2     1  UNL1       -0.1379
     28 C         140.4976  145.8410  157.4554 C.3     1  UNL1        0.1164
     29 N         140.8922  145.0384  158.6596 N.3     1  UNL1       -0.1388
     30 C         140.9064  145.6787  160.0159 C.3     1  UNL1        0.1292
     31 C         140.0258  145.1448  161.1065 C.3     1  UNL1        0.1625
     32 C         140.1725  145.6586  162.5081 C.3     1  UNL1        0.1731
     33 O         139.2919  145.1246  163.5987 O.3     1  UNL1       -0.3485
     34 C         138.2646  144.0769  163.2878 C.3     1  UNL1        0.1742
     35 C         138.1178  143.5630  161.8862 C.3     1  UNL1        0.1742
     36 O         138.9984  144.0970  160.7956 O.3     1  UNL1       -0.3495
@<TRIPOS>BOND
     1    28    29    1
     2    29    30    1
     3    31    30    1
     4    31    32    1
     5    32    33    1
     6    33    34    1
     7    34    35    1
     8    35    36    1
     9    29    25    1
    10    25    26    2
    11    25    27    2
    12    25    23    1
    13    23     1    1
    14     1     2   ar
    15     2     3   ar
    16     3     4   ar
    17     4     5   ar
    18     5     6   ar
    19     6     7   ar
    20     7     8   ar
    21     8     9   ar
    22     9    10   ar
    23    10    17    1
    24    17    18   ar
    25    18    19   ar
    26    19    20   ar
    27    20    21    1
    28    20    22   ar
    29    10    11   ar
    30    11    12   ar
    31    12    13   ar
    32    13    14    2
    33    13    15   ar
    34    15    16   ar
    35    36    31    1
    36    16     1   ar
    37    15     4   ar
    38    12     7   ar
    39    22    17   ar
    40    23    24    1
@<TRIPOS>MOLECULE
*****
 36 40 0 0 0
SMALL
GASTEIGER

@<TRIPOS>ATOM
      1 C         139.8085  142.5210  165.4591 C.ar    1  UNL1        0.0659
      2 C         139.1025  143.8406  165.5601 C.ar    1  UNL1        0.0159
      3 C         139.1787  144.8206  164.4271 C.ar    1  UNL1        0.0014
      4 C         139.9608  144.4810  163.1930 C.ar    1  UNL1        0.0032
      5 C         139.9081  145.5928  162.1875 C.ar    1  UNL1        0.0016
      6 C         140.5482  145.6597  160.8326 C.ar    1  UNL1        0.0192
      7 C         141.3992  144.6311  160.1486 C.ar    1  UNL1        0.0844
      8 N         141.8406  145.0984  158.7933 N.ar    1  UNL1       -0.2437
      9 C         142.7030  144.2164  157.9400 C.ar    1  UNL1        0.0989
     10 C         143.1240  142.8670  158.4419 C.ar    1  UNL1        0.0223
     11 C         142.6827  142.3997  159.7971 C.ar    1  UNL1        0.0063
     12 C         141.8202  143.2818  160.6505 C.ar    1  UNL1        0.0566
     13 C         141.4942  142.6276  161.9605 C.ar    1  UNL1        0.1970
     14 O         142.0722  141.2588  162.1660 O.2     1  UNL1       -0.2865
     15 C         140.6667  143.1614  163.0920 C.ar    1  UNL1        0.0403
     16 C         140.5905  142.1814  164.2250 C.ar    1  UNL1        0.0191
     17 C         143.9864  141.9849  157.5885 C.ar    1  UNL1        0.0411
     18 C         144.0684  140.4892  157.6676 C.ar    1  UNL1        0.1217
     19 N         145.0509  140.0237  156.6342 N.ar    1  UNL1       -0.1676
     20 N         145.5762  141.2315  155.9165 N.ar    1  UNL1       -0.2473
     21 C         146.5826  141.2279  154.8042 C.3     1  UNL1        0.1538
     22 C         144.9183  142.4436  156.5063 C.ar    1  UNL1        0.0967
     23 N         139.7323  141.5409  166.5921 N.pl3   1  UNL1       -0.2052
     24 H         138.8910  141.4299  167.0913 H       1  UNL1        0.1748
     25 S         140.9379  140.7300  166.9646 S.O2    1  UNL1        0.1131
     26 O         140.3504  139.5374  166.2701 O.2     1  UNL1       -0.1379
     27 O         141.5255  141.9226  167.6592 O.2     1  UNL1       -0.1379
     28 C         142.5179  139.7510  168.7800 C.3     1  UNL1        0.1164
     29 N         142.1436  139.9190  167.3372 N.3     1  UNL1       -0.1388
     30 C         142.9750  139.2761  166.2669 C.3     1  UNL1        0.1292
     31 C         143.7461  140.1282  165.3029 C.3     1  UNL1        0.1625
     32 C         144.4286  139.4984  164.1251 C.3     1  UNL1        0.1731
     33 O         145.1997  140.3506  163.1611 O.3     1  UNL1       -0.3485
     34 C         145.2883  141.8326  163.3750 C.3     1  UNL1        0.1742
     35 C         144.6058  142.4624  164.5529 C.3     1  UNL1        0.1742
     36 O         143.8347  141.6103  165.5169 O.3     1  UNL1       -0.3495
@<TRIPOS>BOND
     1    28    29    1
     2    29    30    1
     3    31    30    1
     4    31    32    1
     5    32    33    1
     6    33    34    1
     7    34    35    1
     8    35    36    1
     9    29    25    1
    10    25    26    2
    11    25    27    2
    12    25    23    1
    13    23     1    1
    14     1     2   ar
    15     2     3   ar
    16     3     4   ar
    17     4     5   ar
    18     5     6   ar
    19     6     7   ar
    20     7     8   ar
    21     8     9   ar
    22     9    10   ar
    23    10    17    1
    24    17    18   ar
    25    18    19   ar
    26    19    20   ar
    27    20    21    1
    28    20    22   ar
    29    10    11   ar
    30    11    12   ar
    31    12    13   ar
    32    13    14    2
    33    13    15   ar
    34    15    16   ar
    35    36    31    1
    36    16     1   ar
    37    15     4   ar
    38    12     7   ar
    39    22    17   ar
    40    23    24    1
@<TRIPOS>MOLECULE
*****
 36 40 0 0 0
SMALL
GASTEIGER

@<TRIPOS>ATOM
      1 C         142.5873  144.0368  158.7184 C.ar    1  UNL1        0.0659
      2 C         141.5623  145.1066  158.4844 C.ar    1  UNL1        0.0159
      3 C         140.6376  145.5145  159.5926 C.ar    1  UNL1        0.0014
      4 C         140.7378  144.8527  160.9350 C.ar    1  UNL1        0.0032
      5 C         139.7265  145.4051  161.8952 C.ar    1  UNL1        0.0016
      6 C         139.4904  145.0241  163.3268 C.ar    1  UNL1        0.0192
      7 C         140.2074  143.9966  164.1515 C.ar    1  UNL1        0.0844
      8 N         139.6560  143.9304  165.5449 N.ar    1  UNL1       -0.2437
      9 C         140.2348  142.9639  166.5353 C.ar    1  UNL1        0.0989
     10 C         141.3648  142.0636  166.1323 C.ar    1  UNL1        0.0223
     11 C         141.9162  142.1298  164.7389 C.ar    1  UNL1        0.0063
     12 C         141.3375  143.0963  163.7484 C.ar    1  UNL1        0.0566
     13 C         142.0297  143.0012  162.4211 C.ar    1  UNL1        0.1970
     14 O         143.1349  141.9908  162.3345 O.2     1  UNL1       -0.2865
     15 C         141.7628  143.7829  161.1690 C.ar    1  UNL1        0.0403
     16 C         142.6876  143.3749  160.0607 C.ar    1  UNL1        0.0191
     17 C         141.9436  141.0970  167.1227 C.ar    1  UNL1        0.0411
     18 C         142.5185  139.7483  166.8058 C.ar    1  UNL1        0.1217
     19 N         142.9793  139.1273  168.0911 N.ar    1  UNL1       -0.1676
     20 N         142.6893  140.0922  169.2024 N.ar    1  UNL1       -0.2473
     21 C         142.9870  139.8775  170.6568 C.3     1  UNL1        0.1538
     22 C         142.0492  141.3096  168.6038 C.ar    1  UNL1        0.0967
     23 N         143.5122  143.6288  157.6101 N.pl3   1  UNL1       -0.2052
     24 H         144.0027  144.3140  157.1009 H       1  UNL1        0.1748
     25 S         143.6897  142.1770  157.2776 S.O2    1  UNL1        0.1131
     26 O         142.2791  142.1206  156.7707 O.2     1  UNL1       -0.1379
     27 O         145.1003  142.2334  157.7845 O.2     1  UNL1       -0.1379
     28 C         145.0678  140.2753  156.1664 C.3     1  UNL1        0.1164
     29 N         143.8671  140.7251  156.9450 N.3     1  UNL1       -0.1388
     30 C         142.8440  139.7230  157.3910 C.3     1  UNL1        0.1292
     31 C         142.8798  139.1874  158.7916 C.3     1  UNL1        0.1625
     32 C         141.6806  138.4858  159.3572 C.3     1  UNL1        0.1731
     33 O         141.7164  137.9501  160.7579 O.3     1  UNL1       -0.3485
     34 C         142.9513  138.1161  161.5930 C.3     1  UNL1        0.1742
     35 C         144.1505  138.8177  161.0274 C.3     1  UNL1        0.1742
     36 O         144.1147  139.3533  159.6268 O.3     1  UNL1       -0.3495
@<TRIPOS>BOND
     1    28    29    1
     2    29    30    1
     3    31    30    1
     4    31    32    1
     5    32    33    1
     6    33    34    1
     7    34    35    1
     8    35    36    1
     9    29    25    1
    10    25    26    2
    11    25    27    2
    12    25    23    1
    13    23     1    1
    14     1     2   ar
    15     2     3   ar
    16     3     4   ar
    17     4     5   ar
    18     5     6   ar
    19     6     7   ar
    20     7     8   ar
    21     8     9   ar
    22     9    10   ar
    23    10    17    1
    24    17    18   ar
    25    18    19   ar
    26    19    20   ar
    27    20    21    1
    28    20    22   ar
    29    10    11   ar
    30    11    12   ar
    31    12    13   ar
    32    13    14    2
    33    13    15   ar
    34    15    16   ar
    35    36    31    1
    36    16     1   ar
    37    15     4   ar
    38    12     7   ar
    39    22    17   ar
    40    23    24    1
@<TRIPOS>MOLECULE
*****
 36 40 0 0 0
SMALL
GASTEIGER

@<TRIPOS>ATOM
      1 C         144.3090  141.2780  162.4412 C.ar    1  UNL1        0.0659
      2 C         144.2408  142.6577  161.8566 C.ar    1  UNL1        0.0159
      3 C         143.8564  142.8448  160.4189 C.ar    1  UNL1        0.0014
      4 C         143.5402  141.6523  159.5657 C.ar    1  UNL1        0.0032
      5 C         143.1814  142.0587  158.1671 C.ar    1  UNL1        0.0016
      6 C         142.8023  141.1858  157.0076 C.ar    1  UNL1        0.0192
      7 C         142.6883  139.6910  156.9604 C.ar    1  UNL1        0.0844
      8 N         142.2799  139.2152  155.5977 N.ar    1  UNL1       -0.2437
      9 C         142.1085  137.7483  155.3357 C.ar    1  UNL1        0.0989
     10 C         142.3455  136.7571  156.4362 C.ar    1  UNL1        0.0223
     11 C         142.7539  137.2328  157.7989 C.ar    1  UNL1        0.0063
     12 C         142.9253  138.6997  158.0610 C.ar    1  UNL1        0.0566
     13 C         143.3349  138.9586  159.4807 C.ar    1  UNL1        0.1970
     14 O         143.4914  137.7426  160.3449 O.2     1  UNL1       -0.2865
     15 C         143.6085  140.2726  160.1503 C.ar    1  UNL1        0.0403
     16 C         143.9929  140.0855  161.5880 C.ar    1  UNL1        0.0191
     17 C         142.1740  135.2901  156.1742 C.ar    1  UNL1        0.0411
     18 C         141.2317  134.6759  155.1818 C.ar    1  UNL1        0.1217
     19 N         141.3902  133.1860  155.2529 N.ar    1  UNL1       -0.1676
     20 N         142.4304  132.8793  156.2891 N.ar    1  UNL1       -0.2473
     21 C         142.9033  131.5123  156.6863 C.3     1  UNL1        0.1538
     22 C         142.9149  134.1798  156.8585 C.ar    1  UNL1        0.0967
     23 N         144.6934  141.0908  163.8790 N.pl3   1  UNL1       -0.2052
     24 H         145.5068  141.5196  164.2309 H       1  UNL1        0.1748
     25 S         143.8387  140.2503  164.7806 S.O2    1  UNL1        0.1131
     26 O         144.9191  139.2113  164.8363 O.2     1  UNL1       -0.1379
     27 O         142.7583  141.2893  164.7248 O.2     1  UNL1       -0.1379
     28 C         142.6584  139.8871  167.0664 C.3     1  UNL1        0.1164
     29 N         142.9839  139.4097  165.6822 N.3     1  UNL1       -0.1388
     30 C         142.4546  138.0918  165.1995 C.3     1  UNL1        0.1292
     31 C         141.2160  138.0451  164.3547 C.3     1  UNL1        0.1625
     32 C         141.2766  137.4829  162.9653 C.3     1  UNL1        0.1731
     33 O         140.0379  137.4362  162.1205 O.3     1  UNL1       -0.3485
     34 C         138.7388  137.9516  162.6651 C.3     1  UNL1        0.1742
     35 C         138.6782  138.5138  164.0544 C.3     1  UNL1        0.1742
     36 O         139.9168  138.5605  164.8992 O.3     1  UNL1       -0.3495
@<TRIPOS>BOND
     1    28    29    1
     2    29    30    1
     3    31    30    1
     4    31    32    1
     5    32    33    1
     6    33    34    1
     7    34    35    1
     8    35    36    1
     9    29    25    1
    10    25    26    2
    11    25    27    2
    12    25    23    1
    13    23     1    1
    14     1     2   ar
    15     2     3   ar
    16     3     4   ar
    17     4     5   ar
    18     5     6   ar
    19     6     7   ar
    20     7     8   ar
    21     8     9   ar
    22     9    10   ar
    23    10    17    1
    24    17    18   ar
    25    18    19   ar
    26    19    20   ar
    27    20    21    1
    28    20    22   ar
    29    10    11   ar
    30    11    12   ar
    31    12    13   ar
    32    13    14    2
    33    13    15   ar
    34    15    16   ar
    35    36    31    1
    36    16     1   ar
    37    15     4   ar
    38    12     7   ar
    39    22    17   ar
    40    23    24    1
