@<TRIPOS>MOLECULE
*****
 22 23 0 0 0
SMALL
GASTEIGER

@<TRIPOS>ATOM
      1 N         141.4004  139.6587  165.8162 N.am    1  UNL1       -0.2779
      2 C         141.8600  139.7053  167.2433 C.2     1  UNL1        0.2498
      3 O         143.1112  138.9861  167.6521 O.2     1  UNL1       -0.2699
      4 C         141.0683  140.4712  168.2616 C.ar    1  UNL1        0.0650
      5 C         139.8698  139.8420  168.9078 C.ar    1  UNL1        0.0054
      6 C         139.0782  140.6078  169.9261 C.ar    1  UNL1        0.0011
      7 C         139.4851  142.0028  170.2981 C.ar    1  UNL1        0.0123
      8 C         140.6837  142.6319  169.6519 C.ar    1  UNL1        0.0683
      9 CL        141.0906  144.0270  170.0239 Cl      1  UNL1       -0.0814
     10 C         141.4753  141.8662  168.6336 C.ar    1  UNL1        0.0725
     11 CL        142.6739  142.4953  167.9874 Cl      1  UNL1       -0.0812
     12 C         140.1491  140.3780  165.4074 C.3     1  UNL1        0.0926
     13 C         140.0382  141.8375  165.0796 C.3     1  UNL1        0.0383
     14 C         138.6097  142.1255  164.7242 C.3     1  UNL1        0.0704
     15 N         137.8377  140.8440  164.8323 N.3     1  UNL1       -0.2960
     16 C         138.7891  139.7640  165.2545 C.3     1  UNL1        0.0887
     17 H         137.4273  140.6098  163.9283 H       1  UNL1        0.1233
     18 C         142.1920  138.8928  164.7979 C.3     1  UNL1        0.0756
     19 C         144.7369  139.3312  164.5138 C.3     1  UNL1        0.0018
     20 C         143.3221  139.5590  164.0707 C.3     1  UNL1        0.0198
     21 C         141.8534  137.4608  164.5070 C.3     1  UNL1        0.0198
     22 C         140.8671  137.1279  163.4270 C.3     1  UNL1        0.0018
@<TRIPOS>BOND
     1    19    20    1
     2    20    18    1
     3    18    21    1
     4    21    22    1
     5    18     1    1
     6     1     2   am
     7     2     3    2
     8     2     4    1
     9     4     5   ar
    10     5     6   ar
    11     6     7   ar
    12     7     8   ar
    13     8     9    1
    14     8    10   ar
    15    10    11    1
    16    12     1    1
    17    12    13    1
    18    13    14    1
    19    14    15    1
    20    15    16    1
    21    10     4   ar
    22    16    12    1
    23    15    17    1
@<TRIPOS>MOLECULE
*****
 22 23 0 0 0
SMALL
GASTEIGER

@<TRIPOS>ATOM
      1 N         140.4649  140.0799  167.4144 N.am    1  UNL1       -0.2779
      2 C         139.1794  139.4446  166.9743 C.2     1  UNL1        0.2498
      3 O         138.1046  139.1527  167.9791 O.2     1  UNL1       -0.2699
      4 C         138.9685  139.1012  165.5294 C.ar    1  UNL1        0.0650
      5 C         139.2879  137.7227  165.0318 C.ar    1  UNL1        0.0054
      6 C         139.0770  137.3793  163.5870 C.ar    1  UNL1        0.0011
      7 C         138.5469  138.4144  162.6397 C.ar    1  UNL1        0.0123
      8 C         138.2275  139.7930  163.1373 C.ar    1  UNL1        0.0683
      9 CL        137.6974  140.8282  162.1900 Cl      1  UNL1       -0.0814
     10 C         138.4384  140.1364  164.5821 C.ar    1  UNL1        0.0725
     11 CL        138.1190  141.5150  165.0797 Cl      1  UNL1       -0.0812
     12 C         141.5397  140.3719  166.4096 C.3     1  UNL1        0.0926
     13 C         142.6363  139.4363  165.9945 C.3     1  UNL1        0.0383
     14 C         143.4809  140.1369  164.9718 C.3     1  UNL1        0.0704
     15 N         142.9063  141.5054  164.7548 N.3     1  UNL1       -0.2960
     16 C         141.7066  141.6506  165.6434 C.3     1  UNL1        0.0887
     17 H         142.6296  141.6139  163.7791 H       1  UNL1        0.1233
     18 C         140.6758  140.4233  168.8593 C.3     1  UNL1        0.0756
     19 C         142.8023  140.0241  170.2973 C.3     1  UNL1        0.0018
     20 C         141.5059  139.5271  169.7297 C.3     1  UNL1        0.0198
     21 C         140.0564  141.6629  169.4337 C.3     1  UNL1        0.0198
     22 C         140.4947  143.0134  168.9501 C.3     1  UNL1        0.0018
@<TRIPOS>BOND
     1    19    20    1
     2    20    18    1
     3    18    21    1
     4    21    22    1
     5    18     1    1
     6     1     2   am
     7     2     3    2
     8     2     4    1
     9     4     5   ar
    10     5     6   ar
    11     6     7   ar
    12     7     8   ar
    13     8     9    1
    14     8    10   ar
    15    10    11    1
    16    12     1    1
    17    12    13    1
    18    13    14    1
    19    14    15    1
    20    15    16    1
    21    10     4   ar
    22    16    12    1
    23    15    17    1
@<TRIPOS>MOLECULE
*****
 22 23 0 0 0
SMALL
GASTEIGER

@<TRIPOS>ATOM
      1 N         141.0682  141.9278  167.7209 N.am    1  UNL1       -0.2779
      2 C         140.5716  140.5192  167.8587 C.2     1  UNL1        0.2498
      3 O         140.5259  139.8688  169.2096 O.2     1  UNL1       -0.2699
      4 C         140.1205  139.7609  166.6456 C.ar    1  UNL1        0.0650
      5 C         138.6789  139.7955  166.2326 C.ar    1  UNL1        0.0054
      6 C         138.2279  139.0373  165.0195 C.ar    1  UNL1        0.0011
      7 C         139.2184  138.2444  164.2195 C.ar    1  UNL1        0.0123
      8 C         140.6600  138.2098  164.6325 C.ar    1  UNL1        0.0683
      9 CL        141.6506  137.4169  163.8323 Cl      1  UNL1       -0.0814
     10 C         141.1111  138.9681  165.8455 C.ar    1  UNL1        0.0725
     11 CL        142.5527  138.9335  166.2585 Cl      1  UNL1       -0.0812
     12 C         141.1139  142.5783  166.3701 C.3     1  UNL1        0.0926
     13 C         140.0065  143.3631  165.7315 C.3     1  UNL1        0.0383
     14 C         140.4832  143.8280  164.3873 C.3     1  UNL1        0.0704
     15 N         141.8851  143.3304  164.1951 N.3     1  UNL1       -0.2960
     16 C         142.2749  142.5580  165.4205 C.3     1  UNL1        0.0887
     17 H         142.5182  144.1199  164.0677 H       1  UNL1        0.1233
     18 C         141.5192  142.6862  168.9341 C.3     1  UNL1        0.0756
     19 C         143.4459  141.3325  170.0319 C.3     1  UNL1        0.0018
     20 C         142.9452  142.5923  169.3900 C.3     1  UNL1        0.0198
     21 C         140.5443  143.5383  169.6913 C.3     1  UNL1        0.0198
     22 C         139.6698  142.9231  170.7433 C.3     1  UNL1        0.0018
@<TRIPOS>BOND
     1    19    20    1
     2    20    18    1
     3    18    21    1
     4    21    22    1
     5    18     1    1
     6     1     2   am
     7     2     3    2
     8     2     4    1
     9     4     5   ar
    10     5     6   ar
    11     6     7   ar
    12     7     8   ar
    13     8     9    1
    14     8    10   ar
    15    10    11    1
    16    12     1    1
    17    12    13    1
    18    13    14    1
    19    14    15    1
    20    15    16    1
    21    10     4   ar
    22    16    12    1
    23    15    17    1
@<TRIPOS>MOLECULE
*****
 22 23 0 0 0
SMALL
GASTEIGER

@<TRIPOS>ATOM
      1 N         141.9357  140.3940  166.9629 N.am    1  UNL1       -0.2779
      2 C         142.6339  139.1452  166.5123 C.2     1  UNL1        0.2498
      3 O         143.5624  138.4266  167.4459 O.2     1  UNL1       -0.2699
      4 C         142.4036  138.6149  165.1282 C.ar    1  UNL1        0.0650
      5 C         141.2230  137.7323  164.8500 C.ar    1  UNL1        0.0054
      6 C         140.9927  137.2020  163.4659 C.ar    1  UNL1        0.0011
      7 C         141.9428  137.5544  162.3600 C.ar    1  UNL1        0.0123
      8 C         143.1233  138.4370  162.6382 C.ar    1  UNL1        0.0683
      9 CL        144.0735  138.7893  161.5322 Cl      1  UNL1       -0.0814
     10 C         143.3537  138.9672  164.0223 C.ar    1  UNL1        0.0725
     11 CL        144.5342  139.8498  164.3005 Cl      1  UNL1       -0.0812
     12 C         141.0072  141.1126  166.0293 C.3     1  UNL1        0.0926
     13 C         139.5196  140.9347  165.9553 C.3     1  UNL1        0.0383
     14 C         138.9963  141.8474  164.8861 C.3     1  UNL1        0.0704
     15 N         140.1604  142.5893  164.2993 N.3     1  UNL1       -0.2960
     16 C         141.4032  142.1352  165.0059 C.3     1  UNL1        0.0887
     17 H         140.0339  143.5927  164.4320 H       1  UNL1        0.1233
     18 C         142.1661  140.9243  168.3470 C.3     1  UNL1        0.0756
     19 C         140.0305  140.2433  169.6604 C.3     1  UNL1        0.0018
     20 C         141.5242  140.2519  169.5242 C.3     1  UNL1        0.0198
     21 C         143.0383  142.1270  168.5539 C.3     1  UNL1        0.0198
     22 C         143.8186  142.2777  169.8260 C.3     1  UNL1        0.0018
@<TRIPOS>BOND
     1    19    20    1
     2    20    18    1
     3    18    21    1
     4    21    22    1
     5    18     1    1
     6     1     2   am
     7     2     3    2
     8     2     4    1
     9     4     5   ar
    10     5     6   ar
    11     6     7   ar
    12     7     8   ar
    13     8     9    1
    14     8    10   ar
    15    10    11    1
    16    12     1    1
    17    12    13    1
    18    13    14    1
    19    14    15    1
    20    15    16    1
    21    10     4   ar
    22    16    12    1
    23    15    17    1
@<TRIPOS>MOLECULE
*****
 22 23 0 0 0
SMALL
GASTEIGER

@<TRIPOS>ATOM
      1 N         140.7038  142.8129  164.4442 N.am    1  UNL1       -0.2779
      2 C         140.3555  141.7179  163.4801 C.2     1  UNL1        0.2498
      3 O         139.7950  142.0569  162.1306 O.2     1  UNL1       -0.2699
      4 C         140.5676  140.2837  163.8653 C.ar    1  UNL1        0.0650
      5 C         141.8837  139.6196  163.5882 C.ar    1  UNL1        0.0054
      6 C         142.0959  138.1855  163.9735 C.ar    1  UNL1        0.0011
      7 C         140.9921  137.4157  164.6358 C.ar    1  UNL1        0.0123
      8 C         139.6760  138.0799  164.9130 C.ar    1  UNL1        0.0683
      9 CL        138.5721  137.3099  165.5754 Cl      1  UNL1       -0.0814
     10 C         139.4638  139.5139  164.5277 C.ar    1  UNL1        0.0725
     11 CL        138.1477  140.1781  164.8048 Cl      1  UNL1       -0.0812
     12 C         141.2643  142.4739  165.7936 C.3     1  UNL1        0.0926
     13 C         142.7146  142.2772  166.1218 C.3     1  UNL1        0.0383
     14 C         142.8196  141.9538  167.5828 C.3     1  UNL1        0.0704
     15 N         141.4340  141.9507  168.1575 N.3     1  UNL1       -0.2960
     16 C         140.4728  142.2721  167.0517 C.3     1  UNL1        0.0887
     17 H         141.3629  142.6536  168.8932 H       1  UNL1        0.1233
     18 C         140.4916  144.2470  164.0589 C.3     1  UNL1        0.0756
     19 C         138.0035  144.1819  164.8037 C.3     1  UNL1        0.0018
     20 C         139.2449  144.9623  164.4880 C.3     1  UNL1        0.0198
     21 C         141.5261  144.9657  163.2445 C.3     1  UNL1        0.0198
     22 C         142.8813  145.2395  163.8261 C.3     1  UNL1        0.0018
@<TRIPOS>BOND
     1    19    20    1
     2    20    18    1
     3    18    21    1
     4    21    22    1
     5    18     1    1
     6     1     2   am
     7     2     3    2
     8     2     4    1
     9     4     5   ar
    10     5     6   ar
    11     6     7   ar
    12     7     8   ar
    13     8     9    1
    14     8    10   ar
    15    10    11    1
    16    12     1    1
    17    12    13    1
    18    13    14    1
    19    14    15    1
    20    15    16    1
    21    10     4   ar
    22    16    12    1
    23    15    17    1
@<TRIPOS>MOLECULE
*****
 22 23 0 0 0
SMALL
GASTEIGER

@<TRIPOS>ATOM
      1 N         142.1732  141.0505  163.6799 N.am    1  UNL1       -0.2779
      2 C         140.7281  140.8564  164.0320 C.2     1  UNL1        0.2498
      3 O         140.2582  139.5382  164.5719 O.2     1  UNL1       -0.2699
      4 C         139.7528  141.9806  163.8441 C.ar    1  UNL1        0.0650
      5 C         138.9665  142.0864  162.5712 C.ar    1  UNL1        0.0054
      6 C         137.9912  143.2104  162.3833 C.ar    1  UNL1        0.0011
      7 C         137.8024  144.2287  163.4684 C.ar    1  UNL1        0.0123
      8 C         138.5888  144.1229  164.7413 C.ar    1  UNL1        0.0683
      9 CL        138.3999  145.1412  165.8264 Cl      1  UNL1       -0.0814
     10 C         139.5640  142.9988  164.9292 C.ar    1  UNL1        0.0725
     11 CL        140.3504  142.8930  166.2022 Cl      1  UNL1       -0.0812
     12 C         142.6431  142.3687  163.1399 C.3     1  UNL1        0.0926
     13 C         143.1947  143.5061  163.9473 C.3     1  UNL1        0.0383
     14 C         143.5364  144.6213  163.0042 C.3     1  UNL1        0.0704
     15 N         143.1960  144.1731  161.6138 N.3     1  UNL1       -0.2960
     16 C         142.6439  142.7810  161.6977 C.3     1  UNL1        0.0887
     17 H         144.0346  144.1785  161.0332 H       1  UNL1        0.1233
     18 C         143.1485  139.9263  163.8677 C.3     1  UNL1        0.0756
     19 C         142.4924  138.0767  162.1654 C.3     1  UNL1        0.0018
     20 C         143.5040  139.0407  162.7105 C.3     1  UNL1        0.0198
     21 C         143.7681  139.6879  165.2128 C.3     1  UNL1        0.0198
     22 C         143.3983  138.4681  166.0033 C.3     1  UNL1        0.0018
@<TRIPOS>BOND
     1    19    20    1
     2    20    18    1
     3    18    21    1
     4    21    22    1
     5    18     1    1
     6     1     2   am
     7     2     3    2
     8     2     4    1
     9     4     5   ar
    10     5     6   ar
    11     6     7   ar
    12     7     8   ar
    13     8     9    1
    14     8    10   ar
    15    10    11    1
    16    12     1    1
    17    12    13    1
    18    13    14    1
    19    14    15    1
    20    15    16    1
    21    10     4   ar
    22    16    12    1
    23    15    17    1
@<TRIPOS>MOLECULE
*****
 22 23 0 0 0
SMALL
GASTEIGER

@<TRIPOS>ATOM
      1 N         139.5569  140.6680  164.1487 N.am    1  UNL1       -0.2779
      2 C         141.0523  140.7273  164.2500 C.2     1  UNL1        0.2498
      3 O         141.8066  139.5962  164.8837 O.2     1  UNL1       -0.2699
      4 C         141.7934  141.9179  163.7176 C.ar    1  UNL1        0.0650
      5 C         142.0975  143.0770  164.6198 C.ar    1  UNL1        0.0054
      6 C         142.8386  144.2675  164.0875 C.ar    1  UNL1        0.0011
      7 C         143.2756  144.2988  162.6529 C.ar    1  UNL1        0.0123
      8 C         142.9716  143.1397  161.7507 C.ar    1  UNL1        0.0683
      9 CL        143.4086  143.1711  160.3161 Cl      1  UNL1       -0.0814
     10 C         142.2305  141.9492  162.2831 C.ar    1  UNL1        0.0725
     11 CL        141.9264  140.7901  161.3809 Cl      1  UNL1       -0.0812
     12 C         138.8026  141.7991  163.5150 C.3     1  UNL1        0.0926
     13 C         138.3666  143.0608  164.1991 C.3     1  UNL1        0.0383
     14 C         137.6464  143.9086  163.1929 C.3     1  UNL1        0.0704
     15 N         137.6373  143.1709  161.8869 N.3     1  UNL1       -0.2960
     16 C         138.3519  141.8671  162.0860 C.3     1  UNL1        0.0887
     17 H         138.1155  143.7224  161.1744 H       1  UNL1        0.1233
     18 C         138.8158  139.4774  164.6812 C.3     1  UNL1        0.0756
     19 C         137.7389  138.3272  166.7468 C.3     1  UNL1        0.0018
     20 C         138.0804  139.5733  165.9850 C.3     1  UNL1        0.0198
     21 C         138.8101  138.1910  163.9097 C.3     1  UNL1        0.0198
     22 C         139.0707  138.2011  162.4326 C.3     1  UNL1        0.0018
@<TRIPOS>BOND
     1    19    20    1
     2    20    18    1
     3    18    21    1
     4    21    22    1
     5    18     1    1
     6     1     2   am
     7     2     3    2
     8     2     4    1
     9     4     5   ar
    10     5     6   ar
    11     6     7   ar
    12     7     8   ar
    13     8     9    1
    14     8    10   ar
    15    10    11    1
    16    12     1    1
    17    12    13    1
    18    13    14    1
    19    14    15    1
    20    15    16    1
    21    10     4   ar
    22    16    12    1
    23    15    17    1
@<TRIPOS>MOLECULE
*****
 22 23 0 0 0
SMALL
GASTEIGER

@<TRIPOS>ATOM
      1 N         142.2554  140.5838  164.9624 N.am    1  UNL1       -0.2779
      2 C         142.5336  142.0541  165.0669 C.2     1  UNL1        0.2498
      3 O         143.8012  142.5337  165.7097 O.2     1  UNL1       -0.2699
      4 C         141.5442  143.0447  164.5286 C.ar    1  UNL1        0.0650
      5 C         141.6745  143.5454  163.1206 C.ar    1  UNL1        0.0054
      6 C         140.6852  144.5360  162.5823 C.ar    1  UNL1        0.0011
      7 C         139.5655  145.0259  163.4519 C.ar    1  UNL1        0.0123
      8 C         139.4352  144.5252  164.8598 C.ar    1  UNL1        0.0683
      9 CL        138.3154  145.0152  165.7295 Cl      1  UNL1       -0.0814
     10 C         140.4245  143.5346  165.3982 C.ar    1  UNL1        0.0725
     11 CL        140.2942  143.0339  166.8061 Cl      1  UNL1       -0.0812
     12 C         140.9879  140.1042  164.3196 C.3     1  UNL1        0.0926
     13 C         139.6924  139.8275  165.0232 C.3     1  UNL1        0.0383
     14 C         138.6971  139.3693  163.9988 C.3     1  UNL1        0.0704
     15 N         139.3775  139.3628  162.6620 N.3     1  UNL1       -0.2960
     16 C         140.7933  139.8169  162.8603 C.3     1  UNL1        0.0887
     17 H         138.8961  139.9980  162.0254 H       1  UNL1        0.1233
     18 C         143.2449  139.5932  165.5007 C.3     1  UNL1        0.0756
     19 C         144.5361  139.5366  163.2471 C.3     1  UNL1        0.0018
     20 C         144.4883  139.2772  164.7236 C.3     1  UNL1        0.0198
     21 C         142.9907  138.9185  166.8161 C.3     1  UNL1        0.0198
     22 C         142.5244  139.7224  167.9935 C.3     1  UNL1        0.0018
@<TRIPOS>BOND
     1    19    20    1
     2    20    18    1
     3    18    21    1
     4    21    22    1
     5    18     1    1
     6     1     2   am
     7     2     3    2
     8     2     4    1
     9     4     5   ar
    10     5     6   ar
    11     6     7   ar
    12     7     8   ar
    13     8     9    1
    14     8    10   ar
    15    10    11    1
    16    12     1    1
    17    12    13    1
    18    13    14    1
    19    14    15    1
    20    15    16    1
    21    10     4   ar
    22    16    12    1
    23    15    17    1
@<TRIPOS>MOLECULE
*****
 22 23 0 0 0
SMALL
GASTEIGER

@<TRIPOS>ATOM
      1 N         141.1490  141.0430  166.8155 N.am    1  UNL1       -0.2779
      2 C         139.7972  140.4048  166.6924 C.2     1  UNL1        0.2498
      3 O         139.1305  139.8209  167.9026 O.2     1  UNL1       -0.2699
      4 C         139.1120  140.3505  165.3591 C.ar    1  UNL1        0.0650
      5 C         138.3086  141.5233  164.8804 C.ar    1  UNL1        0.0054
      6 C         137.6234  141.4690  163.5472 C.ar    1  UNL1        0.0011
      7 C         137.7416  140.2420  162.6926 C.ar    1  UNL1        0.0123
      8 C         138.5451  139.0692  163.1713 C.ar    1  UNL1        0.0683
      9 CL        138.6633  137.8421  162.3166 Cl      1  UNL1       -0.0814
     10 C         139.2302  139.1235  164.5045 C.ar    1  UNL1        0.0725
     11 CL        140.0337  137.9507  164.9832 Cl      1  UNL1       -0.0812
     12 C         141.8158  141.6269  165.6053 C.3     1  UNL1        0.0926
     13 C         142.7027  140.8903  164.6457 C.3     1  UNL1        0.0383
     14 C         143.1477  141.8580  163.5896 C.3     1  UNL1        0.0704
     15 N         142.5358  143.1927  163.8964 N.3     1  UNL1       -0.2960
     16 C         141.7126  143.0498  165.1422 C.3     1  UNL1        0.0887
     17 H         141.9422  143.4878  163.1212 H       1  UNL1        0.1233
     18 C         141.8342  141.0973  168.1488 C.3     1  UNL1        0.0756
     19 C         140.5004  143.1713  168.9667 C.3     1  UNL1        0.0018
     20 C         141.7479  142.3386  168.9864 C.3     1  UNL1        0.0198
     21 C         142.6058  139.9102  168.6444 C.3     1  UNL1        0.0198
     22 C         142.1786  139.2089  169.8996 C.3     1  UNL1        0.0018
@<TRIPOS>BOND
     1    19    20    1
     2    20    18    1
     3    18    21    1
     4    21    22    1
     5    18     1    1
     6     1     2   am
     7     2     3    2
     8     2     4    1
     9     4     5   ar
    10     5     6   ar
    11     6     7   ar
    12     7     8   ar
    13     8     9    1
    14     8    10   ar
    15    10    11    1
    16    12     1    1
    17    12    13    1
    18    13    14    1
    19    14    15    1
    20    15    16    1
    21    10     4   ar
    22    16    12    1
    23    15    17    1
