@<TRIPOS>MOLECULE
*****
 22 22 0 0 0
SMALL
GASTEIGER

@<TRIPOS>ATOM
      1 N         139.4430  140.0169  167.7522 N.am    1  UNL1       -0.2994
      2 C         138.4371  139.1407  167.0663 C.2     1  UNL1        0.2459
      3 O         137.4149  138.3978  167.8744 O.2     1  UNL1       -0.2701
      4 H         140.1139  140.5046  167.2218 H       1  UNL1        0.1498
      5 C         138.4535  139.0075  165.5723 C.ar    1  UNL1        0.0534
      6 C         138.0946  140.1817  164.7107 C.ar    1  UNL1        0.0058
      7 C         138.1110  140.0485  163.2167 C.ar    1  UNL1        0.0148
      8 C         138.4861  138.7411  162.5844 C.ar    1  UNL1        0.0503
      9 C         138.8449  137.5669  163.4460 C.ar    1  UNL1        0.0148
     10 C         138.8286  137.7001  164.9400 C.ar    1  UNL1        0.0058
     11 N         138.5024  138.6078  161.0904 N.am    1  UNL1       -0.2839
     12 C         139.8006  138.6936  160.3439 C.2     1  UNL1        0.2266
     13 C         139.8169  138.5604  158.8499 C.3     1  UNL1        0.0949
     14 O         141.0826  138.9126  161.0914 O.2     1  UNL1       -0.2748
     15 H         137.6611  138.4641  160.5998 H       1  UNL1        0.1549
     16 C         139.4267  140.1502  169.2462 C.3     1  UNL1        0.1070
     17 C         140.7104  140.0824  170.0193 C.3     1  UNL1        0.0936
     18 N         141.5926  141.2917  170.1156 N.3     1  UNL1       -0.2712
     19 C         140.4854  143.5950  169.6475 C.3     1  UNL1        0.0188
     20 C         141.0333  142.5900  170.6170 C.3     1  UNL1        0.0722
     21 C         143.0342  141.2026  169.7105 C.3     1  UNL1        0.0722
     22 C         143.9303  142.3961  169.8600 C.3     1  UNL1        0.0188
@<TRIPOS>BOND
     1    19    20    1
     2    20    18    1
     3    18    21    1
     4    21    22    1
     5    18    17    1
     6    17    16    1
     7    16     1    1
     8     1     2   am
     9     2     3    2
    10     2     5    1
    11     5     6   ar
    12     6     7   ar
    13     7     8   ar
    14     8    11    1
    15    11    12   am
    16    12    13    1
    17    12    14    2
    18     8     9   ar
    19     9    10   ar
    20    10     5   ar
    21     1     4    1
    22    11    15    1
@<TRIPOS>MOLECULE
*****
 22 22 0 0 0
SMALL
GASTEIGER

@<TRIPOS>ATOM
      1 N         139.2175  140.0653  168.0241 N.am    1  UNL1       -0.2994
      2 C         138.3019  139.1435  167.2745 C.2     1  UNL1        0.2459
      3 O         137.2574  138.3602  168.0130 O.2     1  UNL1       -0.2701
      4 H         139.9031  140.5794  167.5394 H       1  UNL1        0.1498
      5 C         138.4307  139.0050  165.7865 C.ar    1  UNL1        0.0534
      6 C         138.1127  140.1684  164.8947 C.ar    1  UNL1        0.0058
      7 C         138.2416  140.0299  163.4066 C.ar    1  UNL1        0.0148
      8 C         138.6884  138.7281  162.8104 C.ar    1  UNL1        0.0503
      9 C         139.0065  137.5647  163.7023 C.ar    1  UNL1        0.0148
     10 C         138.8776  137.7032  165.1903 C.ar    1  UNL1        0.0058
     11 N         138.8173  138.5896  161.3224 N.am    1  UNL1       -0.2839
     12 C         140.1564  138.7543  160.6670 C.2     1  UNL1        0.2266
     13 C         140.2853  138.6159  159.1790 C.3     1  UNL1        0.0949
     14 O         141.3668  139.0576  161.4996 O.2     1  UNL1       -0.2748
     15 H         138.0229  138.3906  160.7759 H       1  UNL1        0.1549
     16 C         139.0887  140.2037  169.5121 C.3     1  UNL1        0.1070
     17 C         140.2415  140.7222  170.3197 C.3     1  UNL1        0.0936
     18 N         141.4798  141.2131  169.6300 N.3     1  UNL1       -0.2712
     19 C         142.6122  138.8905  169.8998 C.3     1  UNL1        0.0188
     20 C         142.5657  140.2466  169.2604 C.3     1  UNL1        0.0722
     21 C         141.6321  142.6707  169.3098 C.3     1  UNL1        0.0722
     22 C         140.4875  143.6126  169.5394 C.3     1  UNL1        0.0188
@<TRIPOS>BOND
     1    19    20    1
     2    20    18    1
     3    18    21    1
     4    21    22    1
     5    18    17    1
     6    17    16    1
     7    16     1    1
     8     1     2   am
     9     2     3    2
    10     2     5    1
    11     5     6   ar
    12     6     7   ar
    13     7     8   ar
    14     8    11    1
    15    11    12   am
    16    12    13    1
    17    12    14    2
    18     8     9   ar
    19     9    10   ar
    20    10     5   ar
    21     1     4    1
    22    11    15    1
@<TRIPOS>MOLECULE
*****
 22 22 0 0 0
SMALL
GASTEIGER

@<TRIPOS>ATOM
      1 N         142.8350  139.5465  168.4648 N.am    1  UNL1       -0.2994
      2 C         142.7793  140.3616  167.2069 C.2     1  UNL1        0.2459
      3 O         142.6504  141.8539  167.2853 O.2     1  UNL1       -0.2701
      4 H         142.9195  138.5670  168.4134 H       1  UNL1        0.1498
      5 C         142.8526  139.6843  165.8705 C.ar    1  UNL1        0.0534
      6 C         141.7940  138.7002  165.4694 C.ar    1  UNL1        0.0058
      7 C         141.8672  138.0229  164.1330 C.ar    1  UNL1        0.0148
      8 C         142.9991  138.3297  163.1977 C.ar    1  UNL1        0.0503
      9 C         144.0577  139.3138  163.5988 C.ar    1  UNL1        0.0148
     10 C         143.9844  139.9911  164.9352 C.ar    1  UNL1        0.0058
     11 N         143.0723  137.6524  161.8614 N.am    1  UNL1       -0.2839
     12 C         142.6457  138.3858  160.6244 C.2     1  UNL1        0.2266
     13 C         142.7189  137.7085  159.2881 C.3     1  UNL1        0.0949
     14 O         142.1457  139.7966  160.7239 O.2     1  UNL1       -0.2748
     15 H         143.4005  136.7265  161.7961 H       1  UNL1        0.1549
     16 C         142.7617  140.2238  169.8012 C.3     1  UNL1        0.1070
     17 C         141.4998  140.1541  170.6092 C.3     1  UNL1        0.0936
     18 N         140.3042  140.9644  170.2042 N.3     1  UNL1       -0.2712
     19 C         140.4004  143.4391  169.4192 C.3     1  UNL1        0.0188
     20 C         140.2501  142.4300  170.5188 C.3     1  UNL1        0.0722
     21 C         139.1628  140.3090  169.4847 C.3     1  UNL1        0.0722
     22 C         139.2946  139.9572  168.0325 C.3     1  UNL1        0.0188
@<TRIPOS>BOND
     1    19    20    1
     2    20    18    1
     3    18    21    1
     4    21    22    1
     5    18    17    1
     6    17    16    1
     7    16     1    1
     8     1     2   am
     9     2     3    2
    10     2     5    1
    11     5     6   ar
    12     6     7   ar
    13     7     8   ar
    14     8    11    1
    15    11    12   am
    16    12    13    1
    17    12    14    2
    18     8     9   ar
    19     9    10   ar
    20    10     5   ar
    21     1     4    1
    22    11    15    1
@<TRIPOS>MOLECULE
*****
 22 22 0 0 0
SMALL
GASTEIGER

@<TRIPOS>ATOM
      1 N         142.6087  140.9461  168.5007 N.am    1  UNL1       -0.2994
      2 C         142.7486  139.6430  167.7712 C.2     1  UNL1        0.2459
      3 O         143.3136  138.4457  168.4763 O.2     1  UNL1       -0.2701
      4 H         142.2378  141.7319  168.0379 H       1  UNL1        0.1498
      5 C         142.3236  139.5371  166.3366 C.ar    1  UNL1        0.0534
      6 C         142.7425  138.3538  165.5156 C.ar    1  UNL1        0.0058
      7 C         142.3174  138.2479  164.0809 C.ar    1  UNL1        0.0148
      8 C         141.4735  139.3255  163.4673 C.ar    1  UNL1        0.0503
      9 C         141.0546  140.5089  164.2883 C.ar    1  UNL1        0.0148
     10 C         141.4796  140.6147  165.7230 C.ar    1  UNL1        0.0058
     11 N         141.0484  139.2197  162.0327 N.am    1  UNL1       -0.2839
     12 C         139.8733  138.3653  161.6597 C.2     1  UNL1        0.2266
     13 C         139.4483  138.2595  160.2251 C.3     1  UNL1        0.0949
     14 O         139.1232  137.6167  162.7214 O.2     1  UNL1       -0.2748
     15 H         141.5407  139.7110  161.3359 H       1  UNL1        0.1549
     16 C         143.0337  141.0519  169.9353 C.3     1  UNL1        0.1070
     17 C         142.0004  141.1269  171.0201 C.3     1  UNL1        0.0936
     18 N         140.5631  141.3760  170.6708 N.3     1  UNL1       -0.2712
     19 C         139.2193  140.0779  168.8655 C.3     1  UNL1        0.0188
     20 C         139.6751  140.2298  170.2865 C.3     1  UNL1        0.0722
     21 C         140.0137  142.7714  170.7059 C.3     1  UNL1        0.0722
     22 C         140.4745  143.7843  169.7002 C.3     1  UNL1        0.0188
@<TRIPOS>BOND
     1    19    20    1
     2    20    18    1
     3    18    21    1
     4    21    22    1
     5    18    17    1
     6    17    16    1
     7    16     1    1
     8     1     2   am
     9     2     3    2
    10     2     5    1
    11     5     6   ar
    12     6     7   ar
    13     7     8   ar
    14     8    11    1
    15    11    12   am
    16    12    13    1
    17    12    14    2
    18     8     9   ar
    19     9    10   ar
    20    10     5   ar
    21     1     4    1
    22    11    15    1
@<TRIPOS>MOLECULE
*****
 22 22 0 0 0
SMALL
GASTEIGER

@<TRIPOS>ATOM
      1 N         142.7011  143.4735  164.0403 N.am    1  UNL1       -0.2994
      2 C         143.0498  142.9971  165.4192 C.2     1  UNL1        0.2459
      3 O         144.3841  143.3361  166.0147 O.2     1  UNL1       -0.2701
      4 H         141.8253  143.2510  163.6495 H       1  UNL1        0.1498
      5 C         142.0642  142.1817  166.2027 C.ar    1  UNL1        0.0534
      6 C         142.4902  141.5076  167.4730 C.ar    1  UNL1        0.0058
      7 C         141.5046  140.6922  168.2565 C.ar    1  UNL1        0.0148
      8 C         140.0929  140.5510  167.7695 C.ar    1  UNL1        0.0503
      9 C         139.6669  141.2252  166.4991 C.ar    1  UNL1        0.0148
     10 C         140.6525  142.0406  165.7157 C.ar    1  UNL1        0.0058
     11 N         139.1073  139.7357  168.5530 N.am    1  UNL1       -0.2839
     12 C         138.5718  140.2540  169.8547 C.2     1  UNL1        0.2266
     13 C         137.5862  139.4386  170.6381 C.3     1  UNL1        0.0949
     14 O         139.0219  141.5877  170.3731 O.2     1  UNL1       -0.2748
     15 H         138.8119  138.8603  168.2128 H       1  UNL1        0.1549
     16 C         143.6867  144.2888  163.2569 C.3     1  UNL1        0.1070
     17 C         144.5150  143.6400  162.1877 C.3     1  UNL1        0.0936
     18 N         144.7896  142.1664  162.2425 N.3     1  UNL1       -0.2712
     19 C         142.7005  140.8436  161.4449 C.3     1  UNL1        0.0188
     20 C         144.1339  141.2442  161.2578 C.3     1  UNL1        0.0722
     21 C         145.7199  141.6150  163.2820 C.3     1  UNL1        0.0722
     22 C         145.3103  140.4264  164.1003 C.3     1  UNL1        0.0188
@<TRIPOS>BOND
     1    19    20    1
     2    20    18    1
     3    18    21    1
     4    21    22    1
     5    18    17    1
     6    17    16    1
     7    16     1    1
     8     1     2   am
     9     2     3    2
    10     2     5    1
    11     5     6   ar
    12     6     7   ar
    13     7     8   ar
    14     8    11    1
    15    11    12   am
    16    12    13    1
    17    12    14    2
    18     8     9   ar
    19     9    10   ar
    20    10     5   ar
    21     1     4    1
    22    11    15    1
@<TRIPOS>MOLECULE
*****
 22 22 0 0 0
SMALL
GASTEIGER

@<TRIPOS>ATOM
      1 N         140.5299  142.4673  166.3275 N.am    1  UNL1       -0.2994
      2 C         141.8015  142.7351  165.5784 C.2     1  UNL1        0.2459
      3 O         143.1194  142.3301  166.1692 O.2     1  UNL1       -0.2701
      4 H         139.6649  142.7331  165.9398 H       1  UNL1        0.1498
      5 C         141.7553  143.4079  164.2386 C.ar    1  UNL1        0.0534
      6 C         141.0311  144.7118  164.0787 C.ar    1  UNL1        0.0058
      7 C         140.9849  145.3846  162.7389 C.ar    1  UNL1        0.0148
      8 C         141.6627  144.7536  161.5590 C.ar    1  UNL1        0.0503
      9 C         142.3869  143.4498  161.7188 C.ar    1  UNL1        0.0148
     10 C         142.4331  142.7769  163.0587 C.ar    1  UNL1        0.0058
     11 N         141.6165  145.4265  160.2191 N.am    1  UNL1       -0.2839
     12 C         140.4959  145.1274  159.2680 C.2     1  UNL1        0.2266
     13 C         140.4496  145.8002  157.9281 C.3     1  UNL1        0.0949
     14 O         139.4214  144.1554  159.6566 O.2     1  UNL1       -0.2748
     15 H         142.3216  146.0644  159.9640 H       1  UNL1        0.1549
     16 C         140.5761  141.7944  167.6673 C.3     1  UNL1        0.1070
     17 C         140.3487  140.3154  167.7721 C.3     1  UNL1        0.0936
     18 N         140.2692  139.4790  166.5295 N.3     1  UNL1       -0.2712
     19 C         137.8268  138.6480  166.8363 C.3     1  UNL1        0.0188
     20 C         138.9327  139.1298  165.9448 C.3     1  UNL1        0.0722
     21 C         141.5261  138.9917  165.8716 C.3     1  UNL1        0.0722
     22 C         141.7960  139.3210  164.4333 C.3     1  UNL1        0.0188
@<TRIPOS>BOND
     1    19    20    1
     2    20    18    1
     3    18    21    1
     4    21    22    1
     5    18    17    1
     6    17    16    1
     7    16     1    1
     8     1     2   am
     9     2     3    2
    10     2     5    1
    11     5     6   ar
    12     6     7   ar
    13     7     8   ar
    14     8    11    1
    15    11    12   am
    16    12    13    1
    17    12    14    2
    18     8     9   ar
    19     9    10   ar
    20    10     5   ar
    21     1     4    1
    22    11    15    1
@<TRIPOS>MOLECULE
*****
 22 22 0 0 0
SMALL
GASTEIGER

@<TRIPOS>ATOM
      1 N         142.1888  141.9925  165.9585 N.am    1  UNL1       -0.2994
      2 C         141.1515  142.9855  165.5250 C.2     1  UNL1        0.2459
      3 O         140.0187  143.3360  166.4436 O.2     1  UNL1       -0.2701
      4 H         142.9323  141.7625  165.3556 H       1  UNL1        0.1498
      5 C         141.2471  143.6281  164.1730 C.ar    1  UNL1        0.0534
      6 C         140.4301  144.8471  163.8625 C.ar    1  UNL1        0.0058
      7 C         140.5257  145.4897  162.5105 C.ar    1  UNL1        0.0148
      8 C         141.4383  144.9133  161.4690 C.ar    1  UNL1        0.0503
      9 C         142.2553  143.6942  161.7795 C.ar    1  UNL1        0.0148
     10 C         142.1597  143.0517  163.1315 C.ar    1  UNL1        0.0058
     11 N         141.5339  145.5558  160.1170 N.am    1  UNL1       -0.2839
     12 C         140.5525  145.1920  159.0425 C.2     1  UNL1        0.2266
     13 C         140.6481  145.8345  157.6905 C.3     1  UNL1        0.0949
     14 O         139.4754  144.1855  159.3201 O.2     1  UNL1       -0.2748
     15 H         142.2408  146.2164  159.9348 H       1  UNL1        0.1549
     16 C         142.0932  141.3499  167.3105 C.3     1  UNL1        0.1070
     17 C         141.6137  139.9341  167.4358 C.3     1  UNL1        0.0936
     18 N         141.4023  139.1022  166.2056 N.3     1  UNL1       -0.2712
     19 C         143.8251  138.1759  166.3541 C.3     1  UNL1        0.0188
     20 C         142.5608  138.3878  165.5752 C.3     1  UNL1        0.0722
     21 C         140.0324  138.9848  165.6059 C.3     1  UNL1        0.0722
     22 C         138.9179  139.8558  166.1052 C.3     1  UNL1        0.0188
@<TRIPOS>BOND
     1    19    20    1
     2    20    18    1
     3    18    21    1
     4    21    22    1
     5    18    17    1
     6    17    16    1
     7    16     1    1
     8     1     2   am
     9     2     3    2
    10     2     5    1
    11     5     6   ar
    12     6     7   ar
    13     7     8   ar
    14     8    11    1
    15    11    12   am
    16    12    13    1
    17    12    14    2
    18     8     9   ar
    19     9    10   ar
    20    10     5   ar
    21     1     4    1
    22    11    15    1
@<TRIPOS>MOLECULE
*****
 22 22 0 0 0
SMALL
GASTEIGER

@<TRIPOS>ATOM
      1 N         142.2509  141.8428  166.3342 N.am    1  UNL1       -0.2994
      2 C         141.2454  142.8835  165.9397 C.2     1  UNL1        0.2459
      3 O         140.1704  143.2910  166.9032 O.2     1  UNL1       -0.2701
      4 H         142.9565  141.5754  165.7018 H       1  UNL1        0.1498
      5 C         141.3147  143.5168  164.5817 C.ar    1  UNL1        0.0534
      6 C         142.3062  143.0195  163.5720 C.ar    1  UNL1        0.0058
      7 C         142.3756  143.6527  162.2140 C.ar    1  UNL1        0.0148
      8 C         141.4534  144.7833  161.8657 C.ar    1  UNL1        0.0503
      9 C         140.4619  145.2806  162.8754 C.ar    1  UNL1        0.0148
     10 C         140.3926  144.6474  164.2334 C.ar    1  UNL1        0.0058
     11 N         141.5228  145.4166  160.5077 N.am    1  UNL1       -0.2839
     12 C         140.5097  145.0591  159.4609 C.2     1  UNL1        0.2266
     13 C         140.5791  145.6924  158.1029 C.3     1  UNL1        0.0949
     14 O         139.4273  144.0684  159.7720 O.2     1  UNL1       -0.2748
     15 H         142.2332  146.0668  160.3035 H       1  UNL1        0.1549
     16 C         142.1816  141.2095  167.6922 C.3     1  UNL1        0.1070
     17 C         141.4272  139.9273  167.8841 C.3     1  UNL1        0.0936
     18 N         139.9685  139.9602  168.2321 N.3     1  UNL1       -0.2712
     19 C         139.1208  140.0413  165.7775 C.3     1  UNL1        0.0188
     20 C         138.9427  139.5979  167.1994 C.3     1  UNL1        0.0722
     21 C         139.5355  140.3555  169.6128 C.3     1  UNL1        0.0722
     22 C         139.6960  141.7746  170.0716 C.3     1  UNL1        0.0188
@<TRIPOS>BOND
     1    19    20    1
     2    20    18    1
     3    18    21    1
     4    21    22    1
     5    18    17    1
     6    17    16    1
     7    16     1    1
     8     1     2   am
     9     2     3    2
    10     2     5    1
    11     5     6   ar
    12     6     7   ar
    13     7     8   ar
    14     8    11    1
    15    11    12   am
    16    12    13    1
    17    12    14    2
    18     8     9   ar
    19     9    10   ar
    20    10     5   ar
    21     1     4    1
    22    11    15    1
@<TRIPOS>MOLECULE
*****
 22 22 0 0 0
SMALL
GASTEIGER

@<TRIPOS>ATOM
      1 N         139.1760  140.3705  166.0220 N.am    1  UNL1       -0.2994
      2 C         138.6645  139.2161  165.2123 C.2     1  UNL1        0.2459
      3 O         138.4451  137.8825  165.8629 O.2     1  UNL1       -0.2701
      4 H         139.3201  141.2458  165.5950 H       1  UNL1        0.1498
      5 C         138.3724  139.3954  163.7520 C.ar    1  UNL1        0.0534
      6 C         138.5318  138.2406  162.8080 C.ar    1  UNL1        0.0058
      7 C         138.2398  138.4199  161.3476 C.ar    1  UNL1        0.0148
      8 C         137.7883  139.7538  160.8313 C.ar    1  UNL1        0.0503
      9 C         137.6289  140.9085  161.7753 C.ar    1  UNL1        0.0148
     10 C         137.9210  140.7293  163.2356 C.ar    1  UNL1        0.0058
     11 N         137.4962  139.9330  159.3710 N.am    1  UNL1       -0.2839
     12 C         138.5940  140.3321  158.4300 C.2     1  UNL1        0.2266
     13 C         138.3020  140.5113  156.9696 C.3     1  UNL1        0.0949
     14 O         139.9840  140.5519  158.9493 O.2     1  UNL1       -0.2748
     15 H         136.5839  139.7888  159.0301 H       1  UNL1        0.1549
     16 C         139.4681  140.1913  167.4824 C.3     1  UNL1        0.1070
     17 C         140.5340  141.0162  168.1408 C.3     1  UNL1        0.0936
     18 N         140.5447  141.1757  169.6323 N.3     1  UNL1       -0.2712
     19 C         142.2337  139.2301  169.9663 C.3     1  UNL1        0.0188
     20 C         141.1341  140.1014  170.4972 C.3     1  UNL1        0.0722
     21 C         139.9658  142.4097  170.2587 C.3     1  UNL1        0.0722
     22 C         140.4449  143.7645  169.8287 C.3     1  UNL1        0.0188
@<TRIPOS>BOND
     1    19    20    1
     2    20    18    1
     3    18    21    1
     4    21    22    1
     5    18    17    1
     6    17    16    1
     7    16     1    1
     8     1     2   am
     9     2     3    2
    10     2     5    1
    11     5     6   ar
    12     6     7   ar
    13     7     8   ar
    14     8    11    1
    15    11    12   am
    16    12    13    1
    17    12    14    2
    18     8     9   ar
    19     9    10   ar
    20    10     5   ar
    21     1     4    1
    22    11    15    1
