@<TRIPOS>MOLECULE
*****
 41 45 0 0 0
SMALL
GASTEIGER

@<TRIPOS>ATOM
      1 C         139.3314  141.3989  162.1976 C.2     1  UNL1        0.1077
      2 C         139.2944  141.1130  160.7256 C.2     1  UNL1        0.0757
      3 N         140.1223  140.1388  159.9410 N.am    1  UNL1       -0.2534
      4 C         139.8442  140.0865  158.4680 C.2     1  UNL1        0.2528
      5 O         138.7932  140.9750  157.8713 O.2     1  UNL1       -0.2696
      6 C         141.1917  139.2099  160.4348 C.3     1  UNL1        0.1025
      7 C         141.6972  139.0258  161.8350 C.3     1  UNL1        0.0390
      8 C         142.5712  138.4082  162.8860 C.3     1  UNL1        0.0061
      9 C         142.5251  138.0516  161.0504 C.3     1  UNL1        0.0061
     10 C         141.2582  139.7251  163.0873 C.2     1  UNL1       -0.0022
     11 C         140.2054  140.7813  163.2487 C.2     1  UNL1        0.0845
     12 N         140.1446  141.1573  164.6995 N.2     1  UNL1       -0.2493
     13 C         141.1599  140.3336  165.4348 C.2     1  UNL1        0.0654
     14 C         141.5467  140.2751  166.8829 C.3     1  UNL1        0.1022
     15 C         142.6216  139.3316  167.3346 C.2     1  UNL1        0.1236
     16 F         143.0084  139.2731  168.7827 F       1  UNL1       -0.2085
     17 C         143.3099  138.4465  166.3382 C.2     1  UNL1        0.0256
     18 C         142.9232  138.5049  164.8901 C.2     1  UNL1        0.0029
     19 C         141.8482  139.4484  164.4384 C.2     1  UNL1        0.0115
     20 C         140.6169  139.1458  157.5917 C.ar    1  UNL1        0.0541
     21 C         140.0387  137.8090  157.2331 C.ar    1  UNL1        0.0076
     22 C         140.8114  136.8682  156.3568 C.ar    1  UNL1        0.0370
     23 C         142.1623  137.2643  155.8391 C.ar    1  UNL1        0.1386
     24 C         142.7405  138.6011  156.1977 C.ar    1  UNL1        0.0370
     25 C         141.9678  139.5419  157.0740 C.ar    1  UNL1        0.0076
     26 O         142.9350  136.3235  154.9628 O.3     1  UNL1       -0.4754
     27 C         142.2599  135.6536  153.8029 C.3     1  UNL1        0.2068
     28 C         141.9846  134.1797  153.8446 C.3     1  UNL1        0.0646
     29 C         141.7945  133.4892  155.1625 C.3     1  UNL1        0.0761
     30 N         142.9857  132.9989  155.9311 N.3     1  UNL1       -0.2683
     31 C         143.7950  131.8496  155.4074 C.3     1  UNL1        0.1046
     32 C         144.9862  131.3593  156.1759 C.3     1  UNL1        0.1595
     33 O         145.3682  132.0183  157.4681 O.3     1  UNL1       -0.3508
     34 C         144.5588  133.1676  157.9918 C.3     1  UNL1        0.1595
     35 C         143.3677  133.6578  157.2233 C.3     1  UNL1        0.1046
     36 C         138.3668  142.4402  162.6828 C.2     1  UNL1        0.3438
     37 O         137.0032  142.0356  163.1591 O.2     1  UNL1       -0.2448
     38 O         138.7659  143.8861  162.6916 O.3     1  UNL1       -0.4491
     39 C         138.6174  144.7366  165.1421 C.3     1  UNL1        0.0473
     40 C         139.4234  144.4752  163.9043 C.3     1  UNL1        0.1694
     41 C         140.8870  144.8030  163.8792 C.3     1  UNL1        0.0473
@<TRIPOS>BOND
     1    39    40    1
     2    40    41    1
     3    40    38    1
     4    38    36    1
     5    36    37    2
     6    36     1    1
     7     1     2    2
     8     2     3    1
     9     3     4   am
    10     4     5    2
    11     4    20    1
    12    20    21   ar
    13    21    22   ar
    14    22    23   ar
    15    23    26    1
    16    26    27    1
    17    27    28    1
    18    28    29    1
    19    29    30    1
    20    30    31    1
    21    31    32    1
    22    32    33    1
    23    33    34    1
    24    34    35    1
    25    23    24   ar
    26    24    25   ar
    27     3     6    1
    28     6     7    1
    29     7     8    1
    30     7     9    1
    31     7    10    1
    32    10    11    2
    33    11    12    1
    34    12    13    2
    35    13    14    1
    36    14    15    1
    37    15    16    1
    38    15    17    2
    39    17    18    1
    40    18    19    2
    41    11     1    1
    42    19    13    1
    43    25    20   ar
    44    19    10    1
    45    35    30    1
@<TRIPOS>MOLECULE
*****
 41 45 0 0 0
SMALL
GASTEIGER

@<TRIPOS>ATOM
      1 C         141.4679  143.2355  162.9251 C.2     1  UNL1        0.1077
      2 C         141.3126  142.8562  161.4822 C.2     1  UNL1        0.0757
      3 N         141.4313  141.4993  160.8540 N.am    1  UNL1       -0.2534
      4 C         141.2185  141.4482  159.3700 C.2     1  UNL1        0.2528
      5 O         140.9094  142.7057  158.6130 O.2     1  UNL1       -0.2696
      6 C         141.7345  140.1866  161.5135 C.3     1  UNL1        0.1025
      7 C         141.9940  139.9066  162.9641 C.3     1  UNL1        0.0390
      8 C         142.3064  139.0228  164.1351 C.3     1  UNL1        0.0061
      9 C         142.1127  138.5496  162.3359 C.3     1  UNL1        0.0061
     10 C         142.0144  140.8702  164.1135 C.2     1  UNL1       -0.0022
     11 C         141.7802  142.3517  164.0962 C.2     1  UNL1        0.0845
     12 N         141.9102  142.8580  165.5021 N.2     1  UNL1       -0.2493
     13 C         142.2247  141.6894  166.3884 C.2     1  UNL1        0.0654
     14 C         142.4607  141.5853  167.8661 C.3     1  UNL1        0.1022
     15 C         142.7612  140.2526  168.4855 C.2     1  UNL1        0.1236
     16 F         142.9972  140.1485  169.9631 F       1  UNL1       -0.2085
     17 C         142.8256  139.0241  167.6272 C.2     1  UNL1        0.0256
     18 C         142.5895  139.1282  166.1496 C.2     1  UNL1        0.0029
     19 C         142.2891  140.4609  165.5302 C.2     1  UNL1        0.0115
     20 C         141.3149  140.1397  158.6431 C.ar    1  UNL1        0.0541
     21 C         140.0737  139.3478  158.3563 C.ar    1  UNL1        0.0076
     22 C         140.1702  138.0392  157.6293 C.ar    1  UNL1        0.0370
     23 C         141.5078  137.5227  157.1892 C.ar    1  UNL1        0.1386
     24 C         142.7490  138.3146  157.4759 C.ar    1  UNL1        0.0370
     25 C         142.6526  139.6231  158.2029 C.ar    1  UNL1        0.0076
     26 O         141.6042  136.2141  156.4622 O.3     1  UNL1       -0.4754
     27 C         142.8792  135.8328  155.7702 C.3     1  UNL1        0.2068
     28 C         143.7309  134.7284  156.3225 C.3     1  UNL1        0.0646
     29 C         143.1081  133.6427  157.1491 C.3     1  UNL1        0.0761
     30 N         142.5404  132.4247  156.4826 N.3     1  UNL1       -0.2683
     31 C         143.0630  131.0639  156.8363 C.3     1  UNL1        0.1046
     32 C         142.4953  129.8459  156.1698 C.3     1  UNL1        0.1595
     33 O         141.4048  129.9887  155.1497 O.3     1  UNL1       -0.3508
     34 C         140.8822  131.3496  154.7961 C.3     1  UNL1        0.1595
     35 C         141.4499  132.5675  155.4625 C.3     1  UNL1        0.1046
     36 C         141.2869  144.6912  163.2385 C.2     1  UNL1        0.3438
     37 O         142.4701  145.5277  163.6263 O.2     1  UNL1       -0.2448
     38 O         139.9227  145.3105  163.1639 O.3     1  UNL1       -0.4491
     39 C         137.6937  143.9758  163.1576 C.3     1  UNL1        0.0473
     40 C         138.7768  144.6923  163.9085 C.3     1  UNL1        0.1694
     41 C         138.7137  144.7904  165.4040 C.3     1  UNL1        0.0473
@<TRIPOS>BOND
     1    39    40    1
     2    40    41    1
     3    40    38    1
     4    38    36    1
     5    36    37    2
     6    36     1    1
     7     1     2    2
     8     2     3    1
     9     3     4   am
    10     4     5    2
    11     4    20    1
    12    20    21   ar
    13    21    22   ar
    14    22    23   ar
    15    23    26    1
    16    26    27    1
    17    27    28    1
    18    28    29    1
    19    29    30    1
    20    30    31    1
    21    31    32    1
    22    32    33    1
    23    33    34    1
    24    34    35    1
    25    23    24   ar
    26    24    25   ar
    27     3     6    1
    28     6     7    1
    29     7     8    1
    30     7     9    1
    31     7    10    1
    32    10    11    2
    33    11    12    1
    34    12    13    2
    35    13    14    1
    36    14    15    1
    37    15    16    1
    38    15    17    2
    39    17    18    1
    40    18    19    2
    41    11     1    1
    42    19    13    1
    43    25    20   ar
    44    19    10    1
    45    35    30    1
@<TRIPOS>MOLECULE
*****
 41 45 0 0 0
SMALL
GASTEIGER

@<TRIPOS>ATOM
      1 C         141.8523  142.1575  162.3530 C.2     1  UNL1        0.1077
      2 C         142.0903  141.8214  160.9106 C.2     1  UNL1        0.0757
      3 N         141.6032  140.6340  160.1343 N.am    1  UNL1       -0.2534
      4 C         142.0161  140.5846  158.6931 C.2     1  UNL1        0.2528
      5 O         142.8629  141.6808  158.1176 O.2     1  UNL1       -0.2696
      6 C         140.7578  139.4893  160.6087 C.3     1  UNL1        0.1025
      7 C         140.1907  139.2493  161.9764 C.3     1  UNL1        0.0390
      8 C         139.4069  138.4809  162.9987 C.3     1  UNL1        0.0061
      9 C         139.7036  138.0618  161.2002 C.3     1  UNL1        0.0061
     10 C         140.3290  140.0948  163.2077 C.2     1  UNL1       -0.0022
     11 C         141.0684  141.3891  163.3753 C.2     1  UNL1        0.0845
     12 N         140.9042  141.8359  164.7977 N.2     1  UNL1       -0.2493
     13 C         140.0633  140.8178  165.5093 C.2     1  UNL1        0.0654
     14 C         139.5754  140.7316  166.9251 C.3     1  UNL1        0.1022
     15 C         138.7319  139.5693  167.3582 C.2     1  UNL1        0.1236
     16 F         138.2440  139.4831  168.7740 F       1  UNL1       -0.2085
     17 C         138.3764  138.4933  166.3755 C.2     1  UNL1        0.0256
     18 C         138.8643  138.5795  164.9597 C.2     1  UNL1        0.0029
     19 C         139.7078  139.7418  164.5266 C.2     1  UNL1        0.0115
     20 C         141.5821  139.4391  157.8274 C.ar    1  UNL1        0.0541
     21 C         142.5035  138.2766  157.6042 C.ar    1  UNL1        0.0076
     22 C         142.0695  137.1311  156.7385 C.ar    1  UNL1        0.0370
     23 C         140.7143  137.1481  156.0960 C.ar    1  UNL1        0.1386
     24 C         139.7929  138.3105  156.3192 C.ar    1  UNL1        0.0370
     25 C         140.2269  139.4560  157.1849 C.ar    1  UNL1        0.0076
     26 O         140.2803  136.0025  155.2303 O.3     1  UNL1       -0.4754
     27 C         141.2249  135.4293  154.2158 C.3     1  UNL1        0.2068
     28 C         141.7524  134.0354  154.3856 C.3     1  UNL1        0.0646
     29 C         141.4673  133.2739  155.6461 C.3     1  UNL1        0.0761
     30 N         142.5990  132.7195  156.4596 N.3     1  UNL1       -0.2683
     31 C         143.5125  133.6476  157.2041 C.3     1  UNL1        0.1046
     32 C         144.6442  133.0932  158.0177 C.3     1  UNL1        0.1595
     33 O         144.8624  131.6107  158.0868 O.3     1  UNL1       -0.3508
     34 C         143.9488  130.6828  157.3423 C.3     1  UNL1        0.1595
     35 C         142.8172  131.2371  156.5288 C.3     1  UNL1        0.1046
     36 C         142.4813  143.4303  162.8370 C.2     1  UNL1        0.3438
     37 O         141.6249  144.6270  163.1276 O.2     1  UNL1       -0.2448
     38 O         143.9669  143.5064  163.0306 O.3     1  UNL1       -0.4491
     39 C         145.6377  141.6911  163.8449 C.3     1  UNL1        0.0473
     40 C         144.6173  142.7477  164.1492 C.3     1  UNL1        0.1694
     41 C         144.2474  143.0455  165.5720 C.3     1  UNL1        0.0473
@<TRIPOS>BOND
     1    39    40    1
     2    40    41    1
     3    40    38    1
     4    38    36    1
     5    36    37    2
     6    36     1    1
     7     1     2    2
     8     2     3    1
     9     3     4   am
    10     4     5    2
    11     4    20    1
    12    20    21   ar
    13    21    22   ar
    14    22    23   ar
    15    23    26    1
    16    26    27    1
    17    27    28    1
    18    28    29    1
    19    29    30    1
    20    30    31    1
    21    31    32    1
    22    32    33    1
    23    33    34    1
    24    34    35    1
    25    23    24   ar
    26    24    25   ar
    27     3     6    1
    28     6     7    1
    29     7     8    1
    30     7     9    1
    31     7    10    1
    32    10    11    2
    33    11    12    1
    34    12    13    2
    35    13    14    1
    36    14    15    1
    37    15    16    1
    38    15    17    2
    39    17    18    1
    40    18    19    2
    41    11     1    1
    42    19    13    1
    43    25    20   ar
    44    19    10    1
    45    35    30    1
@<TRIPOS>MOLECULE
*****
 41 45 0 0 0
SMALL
GASTEIGER

@<TRIPOS>ATOM
      1 C         142.7352  141.4046  162.7632 C.2     1  UNL1        0.1077
      2 C         142.9864  141.0729  161.3221 C.2     1  UNL1        0.0757
      3 N         142.2750  140.0781  160.4536 N.am    1  UNL1       -0.2534
      4 C         142.7670  139.9790  159.0400 C.2     1  UNL1        0.2528
      5 O         143.9019  140.8443  158.5785 O.2     1  UNL1       -0.2696
      6 C         141.1367  139.1693  160.8117 C.3     1  UNL1        0.1025
      7 C         140.4286  139.0309  162.1268 C.3     1  UNL1        0.0390
      8 C         139.4039  138.4497  163.0554 C.3     1  UNL1        0.0061
      9 C         139.7171  138.0360  161.2584 C.3     1  UNL1        0.0061
     10 C         140.6839  139.7670  163.4086 C.2     1  UNL1       -0.0022
     11 C         141.7105  140.8235  163.6918 C.2     1  UNL1        0.0845
     12 N         141.5598  141.2442  165.1237 N.2     1  UNL1       -0.2493
     13 C         140.4401  140.4478  165.7254 C.2     1  UNL1        0.0654
     14 C         139.8435  140.4359  167.1016 C.3     1  UNL1        0.1022
     15 C         138.7057  139.5112  167.4178 C.2     1  UNL1        0.1236
     16 F         138.1090  139.4993  168.7941 F       1  UNL1       -0.2085
     17 C         138.1644  138.5982  166.3578 C.2     1  UNL1        0.0256
     18 C         138.7609  138.6101  164.9817 C.2     1  UNL1        0.0029
     19 C         139.8988  139.5348  164.6655 C.2     1  UNL1        0.0115
     20 C         142.1240  139.0145  158.0880 C.ar    1  UNL1        0.0541
     21 C         142.7734  137.6918  157.8076 C.ar    1  UNL1        0.0076
     22 C         142.1304  136.7274  156.8555 C.ar    1  UNL1        0.0370
     23 C         140.8380  137.0856  156.1840 C.ar    1  UNL1        0.1386
     24 C         140.1885  138.4083  156.4644 C.ar    1  UNL1        0.0370
     25 C         140.8315  139.3728  157.4164 C.ar    1  UNL1        0.0076
     26 O         140.1949  136.1212  155.2319 O.3     1  UNL1       -0.4754
     27 C         140.9874  135.5500  154.0936 C.3     1  UNL1        0.2068
     28 C         141.5333  134.1558  154.1849 C.3     1  UNL1        0.0646
     29 C         141.5433  133.4391  155.5025 C.3     1  UNL1        0.0761
     30 N         142.8271  132.8843  156.0448 N.3     1  UNL1       -0.2683
     31 C         143.5534  131.8059  155.2967 C.3     1  UNL1        0.1046
     32 C         144.8372  131.2512  155.8390 C.3     1  UNL1        0.1595
     33 O         145.3948  131.7747  157.1293 O.3     1  UNL1       -0.3508
     34 C         144.6684  132.8531  157.8774 C.3     1  UNL1        0.1595
     35 C         143.3847  133.4078  157.3352 C.3     1  UNL1        0.1046
     36 C         143.6265  142.4566  163.3539 C.2     1  UNL1        0.3438
     37 O         144.7245  142.0657  164.2980 O.2     1  UNL1       -0.2448
     38 O         143.4197  143.8997  163.0004 O.3     1  UNL1       -0.4491
     39 C         141.5021  144.6788  161.4301 C.3     1  UNL1        0.0473
     40 C         142.0308  144.4342  162.8124 C.3     1  UNL1        0.1694
     41 C         141.1707  144.7241  164.0065 C.3     1  UNL1        0.0473
@<TRIPOS>BOND
     1    39    40    1
     2    40    41    1
     3    40    38    1
     4    38    36    1
     5    36    37    2
     6    36     1    1
     7     1     2    2
     8     2     3    1
     9     3     4   am
    10     4     5    2
    11     4    20    1
    12    20    21   ar
    13    21    22   ar
    14    22    23   ar
    15    23    26    1
    16    26    27    1
    17    27    28    1
    18    28    29    1
    19    29    30    1
    20    30    31    1
    21    31    32    1
    22    32    33    1
    23    33    34    1
    24    34    35    1
    25    23    24   ar
    26    24    25   ar
    27     3     6    1
    28     6     7    1
    29     7     8    1
    30     7     9    1
    31     7    10    1
    32    10    11    2
    33    11    12    1
    34    12    13    2
    35    13    14    1
    36    14    15    1
    37    15    16    1
    38    15    17    2
    39    17    18    1
    40    18    19    2
    41    11     1    1
    42    19    13    1
    43    25    20   ar
    44    19    10    1
    45    35    30    1
@<TRIPOS>MOLECULE
*****
 41 45 0 0 0
SMALL
GASTEIGER

@<TRIPOS>ATOM
      1 C         141.7967  143.3780  162.6354 C.2     1  UNL1        0.1077
      2 C         141.9629  143.3040  161.1465 C.2     1  UNL1        0.0757
      3 N         142.4642  142.1591  160.3171 N.am    1  UNL1       -0.2534
      4 C         142.5130  142.3997  158.8373 C.2     1  UNL1        0.2528
      5 O         142.0760  143.7209  158.2775 O.2     1  UNL1       -0.2696
      6 C         142.9230  140.8053  160.7718 C.3     1  UNL1        0.1025
      7 C         142.9940  140.2621  162.1682 C.3     1  UNL1        0.0390
      8 C         143.2881  139.2094  163.1955 C.3     1  UNL1        0.0061
      9 C         143.4953  139.1172  161.3388 C.3     1  UNL1        0.0061
     10 C         142.6236  140.9386  163.4548 C.2     1  UNL1       -0.0022
     11 C         142.0908  142.3252  163.6627 C.2     1  UNL1        0.0845
     12 N         141.8797  142.5248  165.1343 N.2     1  UNL1       -0.2493
     13 C         142.2821  141.2615  165.8359 C.2     1  UNL1        0.0654
     14 C         142.2892  140.8773  167.2858 C.3     1  UNL1        0.1022
     15 C         142.7561  139.5126  167.6977 C.2     1  UNL1        0.1236
     16 F         142.7633  139.1283  169.1477 F       1  UNL1       -0.2085
     17 C         143.2159  138.5323  166.6597 C.2     1  UNL1        0.0256
     18 C         143.2088  138.9165  165.2098 C.2     1  UNL1        0.0029
     19 C         142.7419  140.2812  164.7979 C.2     1  UNL1        0.0115
     20 C         142.9989  141.3192  157.9174 C.ar    1  UNL1        0.0541
     21 C         144.4027  141.3579  157.3904 C.ar    1  UNL1        0.0076
     22 C         144.8886  140.2774  156.4704 C.ar    1  UNL1        0.0370
     23 C         143.9706  139.1581  156.0775 C.ar    1  UNL1        0.1386
     24 C         142.5668  139.1193  156.6045 C.ar    1  UNL1        0.0370
     25 C         142.0809  140.1999  157.5245 C.ar    1  UNL1        0.0076
     26 O         144.4565  138.0775  155.1575 O.3     1  UNL1       -0.4754
     27 C         144.1968  136.6377  155.4886 C.3     1  UNL1        0.2068
     28 C         143.0158  135.9319  154.8909 C.3     1  UNL1        0.0646
     29 C         142.0604  135.1874  155.7757 C.3     1  UNL1        0.0761
     30 N         142.1363  133.6923  155.8709 N.3     1  UNL1       -0.2683
     31 C         143.0780  133.0497  156.8457 C.3     1  UNL1        0.1046
     32 C         143.1538  131.5547  156.9410 C.3     1  UNL1        0.1595
     33 O         142.2879  130.7022  156.0615 O.3     1  UNL1       -0.3508
     34 C         141.3462  131.3449  155.0867 C.3     1  UNL1        0.1595
     35 C         141.2704  132.8398  154.9914 C.3     1  UNL1        0.1046
     36 C         141.2664  144.6763  163.1675 C.2     1  UNL1        0.3438
     37 O         142.1712  145.6018  163.9255 O.2     1  UNL1       -0.2448
     38 O         139.8311  145.0491  162.9414 O.3     1  UNL1       -0.4491
     39 C         137.7186  143.5746  163.2780 C.3     1  UNL1        0.0473
     40 C         138.7625  144.4956  163.8368 C.3     1  UNL1        0.1694
     41 C         138.7377  144.8630  165.2908 C.3     1  UNL1        0.0473
@<TRIPOS>BOND
     1    39    40    1
     2    40    41    1
     3    40    38    1
     4    38    36    1
     5    36    37    2
     6    36     1    1
     7     1     2    2
     8     2     3    1
     9     3     4   am
    10     4     5    2
    11     4    20    1
    12    20    21   ar
    13    21    22   ar
    14    22    23   ar
    15    23    26    1
    16    26    27    1
    17    27    28    1
    18    28    29    1
    19    29    30    1
    20    30    31    1
    21    31    32    1
    22    32    33    1
    23    33    34    1
    24    34    35    1
    25    23    24   ar
    26    24    25   ar
    27     3     6    1
    28     6     7    1
    29     7     8    1
    30     7     9    1
    31     7    10    1
    32    10    11    2
    33    11    12    1
    34    12    13    2
    35    13    14    1
    36    14    15    1
    37    15    16    1
    38    15    17    2
    39    17    18    1
    40    18    19    2
    41    11     1    1
    42    19    13    1
    43    25    20   ar
    44    19    10    1
    45    35    30    1
@<TRIPOS>MOLECULE
*****
 41 45 0 0 0
SMALL
GASTEIGER

@<TRIPOS>ATOM
      1 C         143.3730  140.4705  162.7383 C.2     1  UNL1        0.1077
      2 C         143.4783  140.1456  161.2777 C.2     1  UNL1        0.0757
      3 N         142.4802  139.4503  160.4000 N.am    1  UNL1       -0.2534
      4 C         142.8855  139.2738  158.9666 C.2     1  UNL1        0.2528
      5 O         144.2166  139.7802  158.4959 O.2     1  UNL1       -0.2696
      6 C         141.1303  138.9083  160.7661 C.3     1  UNL1        0.1025
      7 C         140.4452  138.9275  162.1003 C.3     1  UNL1        0.0390
      8 C         139.3158  138.6374  163.0439 C.3     1  UNL1        0.0061
      9 C         139.4470  138.2323  161.2226 C.3     1  UNL1        0.0061
     10 C         140.9407  139.4937  163.3981 C.2     1  UNL1       -0.0022
     11 C         142.2437  140.1804  163.6820 C.2     1  UNL1        0.0845
     12 N         142.2608  140.5604  165.1329 N.2     1  UNL1       -0.2493
     13 C         140.9684  140.1087  165.7457 C.2     1  UNL1        0.0654
     14 C         140.4290  140.2124  167.1415 C.3     1  UNL1        0.1022
     15 C         139.0738  139.6569  167.4651 C.2     1  UNL1        0.1236
     16 F         138.5344  139.7607  168.8610 F       1  UNL1       -0.2085
     17 C         138.2579  138.9976  166.3929 C.2     1  UNL1        0.0256
     18 C         138.7972  138.8939  164.9971 C.2     1  UNL1        0.0029
     19 C         140.1525  139.4494  164.6735 C.2     1  UNL1        0.0115
     20 C         141.9598  138.5909  158.0041 C.ar    1  UNL1        0.0541
     21 C         142.3307  137.2582  157.4240 C.ar    1  UNL1        0.0076
     22 C         141.4049  136.5753  156.4615 C.ar    1  UNL1        0.0370
     23 C         140.1083  137.2250  156.0789 C.ar    1  UNL1        0.1386
     24 C         139.7373  138.5576  156.6590 C.ar    1  UNL1        0.0370
     25 C         140.6631  139.2406  157.6215 C.ar    1  UNL1        0.0076
     26 O         139.1825  136.5420  155.1164 O.3     1  UNL1       -0.4754
     27 C         139.0918  137.0184  153.6969 C.3     1  UNL1        0.2068
     28 C         137.8699  137.7516  153.2285 C.3     1  UNL1        0.0646
     29 C         136.7052  137.9370  154.1552 C.3     1  UNL1        0.0761
     30 N         136.2741  139.3182  154.5510 N.3     1  UNL1       -0.2683
     31 C         137.2653  140.4440  154.5445 C.3     1  UNL1        0.1046
     32 C         136.8342  141.8251  154.9403 C.3     1  UNL1        0.1595
     33 O         135.4119  142.0805  155.3426 O.3     1  UNL1       -0.3508
     34 C         134.4208  140.9546  155.3491 C.3     1  UNL1        0.1595
     35 C         134.8518  139.5735  154.9534 C.3     1  UNL1        0.1046
     36 C         144.5532  141.1792  163.3341 C.2     1  UNL1        0.3438
     37 O         145.5322  140.4232  164.1825 O.2     1  UNL1       -0.2448
     38 O         144.7542  142.6441  163.0815 O.3     1  UNL1       -0.4491
     39 C         143.3803  144.8033  163.5289 C.3     1  UNL1        0.0473
     40 C         144.1970  143.6539  164.0406 C.3     1  UNL1        0.1694
     41 C         144.4565  143.5144  165.5114 C.3     1  UNL1        0.0473
@<TRIPOS>BOND
     1    39    40    1
     2    40    41    1
     3    40    38    1
     4    38    36    1
     5    36    37    2
     6    36     1    1
     7     1     2    2
     8     2     3    1
     9     3     4   am
    10     4     5    2
    11     4    20    1
    12    20    21   ar
    13    21    22   ar
    14    22    23   ar
    15    23    26    1
    16    26    27    1
    17    27    28    1
    18    28    29    1
    19    29    30    1
    20    30    31    1
    21    31    32    1
    22    32    33    1
    23    33    34    1
    24    34    35    1
    25    23    24   ar
    26    24    25   ar
    27     3     6    1
    28     6     7    1
    29     7     8    1
    30     7     9    1
    31     7    10    1
    32    10    11    2
    33    11    12    1
    34    12    13    2
    35    13    14    1
    36    14    15    1
    37    15    16    1
    38    15    17    2
    39    17    18    1
    40    18    19    2
    41    11     1    1
    42    19    13    1
    43    25    20   ar
    44    19    10    1
    45    35    30    1
@<TRIPOS>MOLECULE
*****
 41 45 0 0 0
SMALL
GASTEIGER

@<TRIPOS>ATOM
      1 C         143.1348  140.8772  162.5597 C.2     1  UNL1        0.1077
      2 C         143.1090  140.6536  161.0767 C.2     1  UNL1        0.0757
      3 N         142.0254  140.0372  160.2425 N.am    1  UNL1       -0.2534
      4 C         142.3040  139.9549  158.7709 C.2     1  UNL1        0.2528
      5 O         143.6012  140.4718  158.2232 O.2     1  UNL1       -0.2696
      6 C         140.6999  139.4923  160.6854 C.3     1  UNL1        0.1025
      7 C         140.1306  139.4291  162.0717 C.3     1  UNL1        0.0390
      8 C         139.0792  139.0916  163.0869 C.3     1  UNL1        0.0061
      9 C         139.0469  138.8127  161.2377 C.3     1  UNL1        0.0061
     10 C         140.7464  139.8953  163.3577 C.2     1  UNL1       -0.0022
     11 C         142.0833  140.5397  163.5748 C.2     1  UNL1        0.0845
     12 N         142.2314  140.8172  165.0415 N.2     1  UNL1       -0.2493
     13 C         140.9860  140.3442  165.7308 C.2     1  UNL1        0.0654
     14 C         140.5691  140.3587  167.1716 C.3     1  UNL1        0.1022
     15 C         139.2344  139.8034  167.5718 C.2     1  UNL1        0.1236
     16 F         138.8175  139.8179  169.0127 F       1  UNL1       -0.2085
     17 C         138.3166  139.2336  166.5311 C.2     1  UNL1        0.0256
     18 C         138.7334  139.2191  165.0903 C.2     1  UNL1        0.0029
     19 C         140.0682  139.7744  164.6902 C.2     1  UNL1        0.0115
     20 C         141.2855  139.3556  157.8471 C.ar    1  UNL1        0.0541
     21 C         140.4031  140.2466  157.0241 C.ar    1  UNL1        0.0076
     22 C         139.3846  139.6473  156.1003 C.ar    1  UNL1        0.0370
     23 C         139.2485  138.1570  155.9995 C.ar    1  UNL1        0.1386
     24 C         140.1308  137.2659  156.8225 C.ar    1  UNL1        0.0370
     25 C         141.1494  137.8652  157.7463 C.ar    1  UNL1        0.0076
     26 O         138.2299  137.5577  155.0756 O.3     1  UNL1       -0.4754
     27 C         138.5985  137.2419  153.6563 C.3     1  UNL1        0.2068
     28 C         140.0417  137.1238  153.2648 C.3     1  UNL1        0.0646
     29 C         140.7147  135.7834  153.2765 C.3     1  UNL1        0.0761
     30 N         141.7194  135.4578  154.3417 N.3     1  UNL1       -0.2683
     31 C         142.9078  136.3491  154.5493 C.3     1  UNL1        0.1046
     32 C         143.9125  136.0236  155.6145 C.3     1  UNL1        0.1595
     33 O         143.7287  134.8067  156.4722 O.3     1  UNL1       -0.3508
     34 C         142.5402  133.9154  156.2645 C.3     1  UNL1        0.1595
     35 C         141.5356  134.2410  155.1993 C.3     1  UNL1        0.1046
     36 C         144.3762  141.5238  163.0988 C.2     1  UNL1        0.3438
     37 O         145.4382  140.6852  163.7461 O.2     1  UNL1       -0.2448
     38 O         144.5557  143.0092  162.9908 O.3     1  UNL1       -0.4491
     39 C         143.2463  145.0911  163.8279 C.3     1  UNL1        0.0473
     40 C         144.1144  143.9015  164.1128 C.3     1  UNL1        0.1694
     41 C         144.5413  143.6043  165.5197 C.3     1  UNL1        0.0473
@<TRIPOS>BOND
     1    39    40    1
     2    40    41    1
     3    40    38    1
     4    38    36    1
     5    36    37    2
     6    36     1    1
     7     1     2    2
     8     2     3    1
     9     3     4   am
    10     4     5    2
    11     4    20    1
    12    20    21   ar
    13    21    22   ar
    14    22    23   ar
    15    23    26    1
    16    26    27    1
    17    27    28    1
    18    28    29    1
    19    29    30    1
    20    30    31    1
    21    31    32    1
    22    32    33    1
    23    33    34    1
    24    34    35    1
    25    23    24   ar
    26    24    25   ar
    27     3     6    1
    28     6     7    1
    29     7     8    1
    30     7     9    1
    31     7    10    1
    32    10    11    2
    33    11    12    1
    34    12    13    2
    35    13    14    1
    36    14    15    1
    37    15    16    1
    38    15    17    2
    39    17    18    1
    40    18    19    2
    41    11     1    1
    42    19    13    1
    43    25    20   ar
    44    19    10    1
    45    35    30    1
@<TRIPOS>MOLECULE
*****
 41 45 0 0 0
SMALL
GASTEIGER

@<TRIPOS>ATOM
      1 C         142.5107  140.2947  161.8399 C.2     1  UNL1        0.1077
      2 C         142.5173  139.5362  160.5458 C.2     1  UNL1        0.0757
      3 N         141.4910  139.5439  159.4519 N.am    1  UNL1       -0.2534
      4 C         141.7908  138.6676  158.2720 C.2     1  UNL1        0.2528
      5 O         143.0522  137.8565  158.2414 O.2     1  UNL1       -0.2696
      6 C         140.2046  140.3121  159.3819 C.3     1  UNL1        0.1025
      7 C         139.6267  141.2623  160.3885 C.3     1  UNL1        0.0390
      8 C         138.5921  142.2159  160.9083 C.3     1  UNL1        0.0061
      9 C         138.6003  141.2701  159.2946 C.3     1  UNL1        0.0061
     10 C         140.1926  141.6790  161.7138 C.2     1  UNL1       -0.0022
     11 C         141.4761  141.2484  162.3596 C.2     1  UNL1        0.0845
     12 N         141.5876  141.9488  163.6814 N.2     1  UNL1       -0.2493
     13 C         140.3730  142.8122  163.8524 C.2     1  UNL1        0.0654
     14 C         139.9408  143.7288  164.9583 C.3     1  UNL1        0.1022
     15 C         138.6463  144.4786  164.8481 C.2     1  UNL1        0.1236
     16 F         138.2140  145.3951  165.9541 F       1  UNL1       -0.2085
     17 C         137.7841  144.3118  163.6321 C.2     1  UNL1        0.0256
     18 C         138.2164  143.3953  162.5262 C.2     1  UNL1        0.0029
     19 C         139.5108  142.6455  162.6363 C.2     1  UNL1        0.0115
     20 C         140.8291  138.6024  157.1227 C.ar    1  UNL1        0.0541
     21 C         140.6485  139.7922  156.2274 C.ar    1  UNL1        0.0076
     22 C         139.6868  139.7270  155.0781 C.ar    1  UNL1        0.0370
     23 C         138.9058  138.4719  154.8241 C.ar    1  UNL1        0.1386
     24 C         139.0864  137.2820  155.7193 C.ar    1  UNL1        0.0370
     25 C         140.0481  137.3472  156.8687 C.ar    1  UNL1        0.0076
     26 O         137.9441  138.4066  153.6747 O.3     1  UNL1       -0.4754
     27 C         136.4664  138.4231  153.9315 C.3     1  UNL1        0.2068
     28 C         135.7509  139.7292  154.1113 C.3     1  UNL1        0.0646
     29 C         135.2917  140.1512  155.4755 C.3     1  UNL1        0.0761
     30 N         133.8295  140.1435  155.8104 N.3     1  UNL1       -0.2683
     31 C         132.9460  141.2596  155.3374 C.3     1  UNL1        0.1046
     32 C         131.4838  141.2519  155.6723 C.3     1  UNL1        0.1595
     33 O         130.9053  140.1282  156.4801 O.3     1  UNL1       -0.3508
     34 C         131.7889  139.0122  156.9530 C.3     1  UNL1        0.1595
     35 C         133.2510  139.0198  156.6182 C.3     1  UNL1        0.1046
     36 C         143.6953  140.0699  162.7322 C.2     1  UNL1        0.3438
     37 O         144.8373  141.0423  162.7218 O.2     1  UNL1       -0.2448
     38 O         143.7378  138.8727  163.6348 O.3     1  UNL1       -0.4491
     39 C         141.5633  137.4514  163.6722 C.3     1  UNL1        0.0473
     40 C         142.4935  138.4204  164.3399 C.3     1  UNL1        0.1694
     41 C         142.1793  138.9371  165.7125 C.3     1  UNL1        0.0473
@<TRIPOS>BOND
     1    39    40    1
     2    40    41    1
     3    40    38    1
     4    38    36    1
     5    36    37    2
     6    36     1    1
     7     1     2    2
     8     2     3    1
     9     3     4   am
    10     4     5    2
    11     4    20    1
    12    20    21   ar
    13    21    22   ar
    14    22    23   ar
    15    23    26    1
    16    26    27    1
    17    27    28    1
    18    28    29    1
    19    29    30    1
    20    30    31    1
    21    31    32    1
    22    32    33    1
    23    33    34    1
    24    34    35    1
    25    23    24   ar
    26    24    25   ar
    27     3     6    1
    28     6     7    1
    29     7     8    1
    30     7     9    1
    31     7    10    1
    32    10    11    2
    33    11    12    1
    34    12    13    2
    35    13    14    1
    36    14    15    1
    37    15    16    1
    38    15    17    2
    39    17    18    1
    40    18    19    2
    41    11     1    1
    42    19    13    1
    43    25    20   ar
    44    19    10    1
    45    35    30    1
@<TRIPOS>MOLECULE
*****
 41 45 0 0 0
SMALL
GASTEIGER

@<TRIPOS>ATOM
      1 C         142.5157  140.2737  162.3062 C.2     1  UNL1        0.1077
      2 C         142.6028  139.5227  161.0106 C.2     1  UNL1        0.0757
      3 N         141.6623  139.5606  159.8427 N.am    1  UNL1       -0.2534
      4 C         142.0302  138.6844  158.6821 C.2     1  UNL1        0.2528
      5 O         143.2716  137.8446  158.7404 O.2     1  UNL1       -0.2696
      6 C         140.4025  140.3587  159.6819 C.3     1  UNL1        0.1025
      7 C         139.7720  141.3162  160.6493 C.3     1  UNL1        0.0390
      8 C         138.7230  142.2904  161.0969 C.3     1  UNL1        0.0061
      9 C         138.8315  141.3540  159.4814 C.3     1  UNL1        0.0061
     10 C         140.2457  141.7119  162.0165 C.2     1  UNL1       -0.0022
     11 C         141.4667  141.2480  162.7538 C.2     1  UNL1        0.0845
     12 N         141.4941  141.9379  164.0854 N.2     1  UNL1       -0.2493
     13 C         140.2899  142.8282  164.1711 C.2     1  UNL1        0.0654
     14 C         139.7964  143.7481  165.2482 C.3     1  UNL1        0.1022
     15 C         138.5313  144.5282  165.0466 C.2     1  UNL1        0.1236
     16 F         138.0376  145.4481  166.1238 F       1  UNL1       -0.2085
     17 C         137.7597  144.3886  163.7679 C.2     1  UNL1        0.0256
     18 C         138.2532  143.4688  162.6908 C.2     1  UNL1        0.0029
     19 C         139.5184  142.6886  162.8924 C.2     1  UNL1        0.0115
     20 C         141.1567  138.6481  157.4632 C.ar    1  UNL1        0.0541
     21 C         141.3148  139.6901  156.3959 C.ar    1  UNL1        0.0076
     22 C         140.4413  139.6538  155.1770 C.ar    1  UNL1        0.0370
     23 C         139.4097  138.5756  155.0255 C.ar    1  UNL1        0.1386
     24 C         139.2516  137.5336  156.0928 C.ar    1  UNL1        0.0370
     25 C         140.1251  137.5699  157.3117 C.ar    1  UNL1        0.0076
     26 O         138.5362  138.5393  153.8066 O.3     1  UNL1       -0.4754
     27 C         138.9978  137.8195  152.5742 C.3     1  UNL1        0.2068
     28 C         139.6701  136.4839  152.6933 C.3     1  UNL1        0.0646
     29 C         141.1675  136.3957  152.6983 C.3     1  UNL1        0.0761
     30 N         141.8946  136.0546  153.9652 N.3     1  UNL1       -0.2683
     31 C         141.5013  134.8394  154.7516 C.3     1  UNL1        0.1046
     32 C         142.2284  134.4983  156.0185 C.3     1  UNL1        0.1595
     33 O         143.3487  135.3723  156.4990 O.3     1  UNL1       -0.3508
     34 C         143.7420  136.5875  155.7124 C.3     1  UNL1        0.1595
     35 C         143.0149  136.9287  154.4456 C.3     1  UNL1        0.1046
     36 C         143.6243  140.0164  163.2833 C.2     1  UNL1        0.3438
     37 O         144.7150  141.0300  163.4643 O.2     1  UNL1       -0.2448
     38 O         143.6422  138.7452  164.0796 O.3     1  UNL1       -0.4491
     39 C         141.4135  137.5359  164.6459 C.3     1  UNL1        0.0473
     40 C         142.5335  138.4500  165.0460 C.3     1  UNL1        0.1694
     41 C         142.5449  139.0688  166.4123 C.3     1  UNL1        0.0473
@<TRIPOS>BOND
     1    39    40    1
     2    40    41    1
     3    40    38    1
     4    38    36    1
     5    36    37    2
     6    36     1    1
     7     1     2    2
     8     2     3    1
     9     3     4   am
    10     4     5    2
    11     4    20    1
    12    20    21   ar
    13    21    22   ar
    14    22    23   ar
    15    23    26    1
    16    26    27    1
    17    27    28    1
    18    28    29    1
    19    29    30    1
    20    30    31    1
    21    31    32    1
    22    32    33    1
    23    33    34    1
    24    34    35    1
    25    23    24   ar
    26    24    25   ar
    27     3     6    1
    28     6     7    1
    29     7     8    1
    30     7     9    1
    31     7    10    1
    32    10    11    2
    33    11    12    1
    34    12    13    2
    35    13    14    1
    36    14    15    1
    37    15    16    1
    38    15    17    2
    39    17    18    1
    40    18    19    2
    41    11     1    1
    42    19    13    1
    43    25    20   ar
    44    19    10    1
    45    35    30    1
