@<TRIPOS>MOLECULE
*****
 30 33 0 0 0
SMALL
GASTEIGER

@<TRIPOS>ATOM
      1 C         140.0040  140.7716  168.8330 C.ar    1  UNL1        0.1582
      2 C         140.4509  141.9176  167.9745 C.ar    1  UNL1        0.0576
      3 C         140.0977  141.9451  166.5169 C.ar    1  UNL1        0.1365
      4 N         139.2975  140.8266  165.9178 N.ar    1  UNL1       -0.1988
      5 C         138.8506  139.6807  166.7764 C.ar    1  UNL1        0.2182
      6 N         139.2039  139.6532  168.2339 N.ar    1  UNL1       -0.2098
      7 F         140.7106  140.7166  171.7480 F       1  UNL1       -0.1644
      8 C         140.3573  140.7441  170.2905 C.3     1  UNL1        0.4350
      9 F         139.8085  142.1310  170.4497 F       1  UNL1       -0.1644
     10 F         140.9061  139.3572  170.1313 F       1  UNL1       -0.1644
     11 N         140.5445  143.0911  165.6584 N.pl3   1  UNL1       -0.2977
     12 H         141.3059  143.6486  165.9388 H       1  UNL1        0.1536
     13 C         139.8314  143.3875  164.3725 C.ar    1  UNL1        0.0525
     14 C         140.4965  143.0929  163.0607 C.ar    1  UNL1        0.0353
     15 C         139.7834  143.3893  161.7748 C.ar    1  UNL1        0.1002
     16 N         138.4050  143.9803  161.8006 N.ar    1  UNL1       -0.2422
     17 C         137.7398  144.2749  163.1124 C.ar    1  UNL1        0.1002
     18 C         138.4530  143.9785  164.3983 C.ar    1  UNL1        0.0353
     19 N         138.0505  138.5622  166.1774 N.pl3   1  UNL1       -0.2990
     20 H         137.0671  138.5841  166.2175 H       1  UNL1        0.1500
     21 C         138.7488  137.4103  165.5173 C.3     1  UNL1        0.1166
     22 C         139.4772  137.6172  164.2224 C.ar    1  UNL1        0.0007
     23 C         138.7060  137.8004  162.9491 C.ar    1  UNL1        0.0007
     24 C         139.4344  138.0073  161.6542 C.ar    1  UNL1        0.0399
     25 C         140.9341  138.0310  161.6328 C.ar    1  UNL1        0.1764
     26 C         141.7053  137.8478  162.9062 C.ar    1  UNL1        0.1762
     27 C         140.9770  137.6409  164.2011 C.ar    1  UNL1        0.0376
     28 O         143.1671  137.9178  162.5771 O.3     1  UNL1       -0.4346
     29 C         143.2992  138.1443  161.1002 C.3     1  UNL1        0.4294
     30 O         141.9192  138.2142  160.5166 O.3     1  UNL1       -0.4346
@<TRIPOS>BOND
     1     7     8    1
     2     8     9    1
     3     8    10    1
     4     8     1    1
     5     1     2   ar
     6     2     3   ar
     7     3    11    1
     8    11    13    1
     9    13    14   ar
    10    14    15   ar
    11    15    16   ar
    12    16    17   ar
    13    17    18   ar
    14     3     4   ar
    15     4     5   ar
    16     5    19    1
    17    19    21    1
    18    21    22    1
    19    22    23   ar
    20    23    24   ar
    21    24    25   ar
    22    25    26   ar
    23    26    27   ar
    24    26    28    1
    25    28    29    1
    26    29    30    1
    27     5     6   ar
    28     6     1   ar
    29    18    13   ar
    30    27    22   ar
    31    30    25    1
    32    11    12    1
    33    19    20    1
@<TRIPOS>MOLECULE
*****
 30 33 0 0 0
SMALL
GASTEIGER

@<TRIPOS>ATOM
      1 C         138.5614  142.5925  164.6215 C.ar    1  UNL1        0.1582
      2 C         139.6854  142.9765  165.5376 C.ar    1  UNL1        0.0576
      3 C         140.2735  141.9595  166.4703 C.ar    1  UNL1        0.1365
      4 N         139.7378  140.5585  166.4868 N.ar    1  UNL1       -0.1988
      5 C         138.6138  140.1746  165.5706 C.ar    1  UNL1        0.2182
      6 N         138.0257  141.1916  164.6380 N.ar    1  UNL1       -0.2098
      7 F         137.3852  144.6265  162.7562 F       1  UNL1       -0.1644
      8 C         137.9733  143.6095  163.6889 C.3     1  UNL1        0.4350
      9 F         137.3721  142.5081  162.8669 F       1  UNL1       -0.1644
     10 F         138.5745  144.7109  164.5108 F       1  UNL1       -0.1644
     11 N         141.3974  142.3434  167.3864 N.pl3   1  UNL1       -0.2977
     12 H         142.2495  142.6650  167.0124 H       1  UNL1        0.1536
     13 C         141.2232  142.2375  168.8725 C.ar    1  UNL1        0.0525
     14 C         140.1618  143.0420  169.5625 C.ar    1  UNL1        0.0353
     15 C         139.9876  142.9360  171.0486 C.ar    1  UNL1        0.1002
     16 N         140.8748  142.0255  171.8447 N.ar    1  UNL1       -0.2422
     17 C         141.9362  141.2210  171.1547 C.ar    1  UNL1        0.1002
     18 C         142.1104  141.3269  169.6686 C.ar    1  UNL1        0.0353
     19 N         138.0780  138.7736  165.5870 N.pl3   1  UNL1       -0.2990
     20 H         137.1678  138.5986  165.9189 H       1  UNL1        0.1500
     21 C         138.9290  137.6394  165.0978 C.3     1  UNL1        0.1166
     22 C         139.7142  137.7844  163.8278 C.ar    1  UNL1        0.0007
     23 C         139.0000  137.9286  162.5168 C.ar    1  UNL1        0.0007
     24 C         139.7851  138.0735  161.2469 C.ar    1  UNL1        0.0399
     25 C         141.2846  138.0743  161.2882 C.ar    1  UNL1        0.1764
     26 C         141.9988  137.9301  162.5993 C.ar    1  UNL1        0.1762
     27 C         141.2137  137.7851  163.8692 C.ar    1  UNL1        0.0376
     28 O         143.4740  137.9655  162.3299 O.3     1  UNL1       -0.4346
     29 C         143.6714  138.1316  160.8523 C.3     1  UNL1        0.4294
     30 O         142.3183  138.1989  160.2085 O.3     1  UNL1       -0.4346
@<TRIPOS>BOND
     1     7     8    1
     2     8     9    1
     3     8    10    1
     4     8     1    1
     5     1     2   ar
     6     2     3   ar
     7     3    11    1
     8    11    13    1
     9    13    14   ar
    10    14    15   ar
    11    15    16   ar
    12    16    17   ar
    13    17    18   ar
    14     3     4   ar
    15     4     5   ar
    16     5    19    1
    17    19    21    1
    18    21    22    1
    19    22    23   ar
    20    23    24   ar
    21    24    25   ar
    22    25    26   ar
    23    26    27   ar
    24    26    28    1
    25    28    29    1
    26    29    30    1
    27     5     6   ar
    28     6     1   ar
    29    18    13   ar
    30    27    22   ar
    31    30    25    1
    32    11    12    1
    33    19    20    1
@<TRIPOS>MOLECULE
*****
 30 33 0 0 0
SMALL
GASTEIGER

@<TRIPOS>ATOM
      1 C         139.9381  140.7151  168.8348 C.ar    1  UNL1        0.1582
      2 C         140.3932  141.8412  167.9546 C.ar    1  UNL1        0.0576
      3 C         140.0332  141.8475  166.4984 C.ar    1  UNL1        0.1365
      4 N         139.2181  140.7277  165.9224 N.ar    1  UNL1       -0.1988
      5 C         138.7630  139.6016  166.8027 C.ar    1  UNL1        0.2182
      6 N         139.1230  139.5953  168.2588 N.ar    1  UNL1       -0.2098
      7 F         140.6580  140.7026  171.7471 F       1  UNL1       -0.1644
      8 C         140.2980  140.7088  170.2909 C.3     1  UNL1        0.4350
      9 F         141.0931  139.4530  170.0890 F       1  UNL1       -0.1644
     10 F         139.5029  141.9646  170.4929 F       1  UNL1       -0.1644
     11 N         140.4883  142.9736  165.6182 N.pl3   1  UNL1       -0.2977
     12 H         141.2687  143.5156  165.8762 H       1  UNL1        0.1536
     13 C         139.7546  143.2738  164.3448 C.ar    1  UNL1        0.0525
     14 C         138.4485  144.0102  164.3876 C.ar    1  UNL1        0.0353
     15 C         137.7147  144.3105  163.1142 C.ar    1  UNL1        0.1002
     16 N         138.2870  143.8743  161.7981 N.ar    1  UNL1       -0.2422
     17 C         139.5931  143.1379  161.7554 C.ar    1  UNL1        0.1002
     18 C         140.3268  142.8377  163.0287 C.ar    1  UNL1        0.0353
     19 N         137.9480  138.4818  166.2268 N.pl3   1  UNL1       -0.2990
     20 H         136.9655  138.5082  166.2838 H       1  UNL1        0.1500
     21 C         138.6298  137.3217  165.5641 C.3     1  UNL1        0.1166
     22 C         139.4253  137.5356  164.3104 C.ar    1  UNL1        0.0007
     23 C         140.9176  137.3867  164.3344 C.ar    1  UNL1        0.0007
     24 C         141.7130  137.6006  163.0808 C.ar    1  UNL1        0.0399
     25 C         141.0159  137.9634  161.8031 C.ar    1  UNL1        0.1764
     26 C         139.5235  138.1123  161.7790 C.ar    1  UNL1        0.1762
     27 C         138.7282  137.8984  163.0326 C.ar    1  UNL1        0.0376
     28 O         139.1163  138.4751  160.3817 O.3     1  UNL1       -0.4346
     29 C         140.3571  138.5503  159.5421 C.3     1  UNL1        0.4294
     30 O         141.5311  138.2341  160.4206 O.3     1  UNL1       -0.4346
@<TRIPOS>BOND
     1     7     8    1
     2     8     9    1
     3     8    10    1
     4     8     1    1
     5     1     2   ar
     6     2     3   ar
     7     3    11    1
     8    11    13    1
     9    13    14   ar
    10    14    15   ar
    11    15    16   ar
    12    16    17   ar
    13    17    18   ar
    14     3     4   ar
    15     4     5   ar
    16     5    19    1
    17    19    21    1
    18    21    22    1
    19    22    23   ar
    20    23    24   ar
    21    24    25   ar
    22    25    26   ar
    23    26    27   ar
    24    26    28    1
    25    28    29    1
    26    29    30    1
    27     5     6   ar
    28     6     1   ar
    29    18    13   ar
    30    27    22   ar
    31    30    25    1
    32    11    12    1
    33    19    20    1
@<TRIPOS>MOLECULE
*****
 30 33 0 0 0
SMALL
GASTEIGER

@<TRIPOS>ATOM
      1 C         138.5743  142.5857  164.6271 C.ar    1  UNL1        0.1582
      2 C         139.7067  142.9596  165.5370 C.ar    1  UNL1        0.0576
      3 C         140.2920  141.9369  166.4652 C.ar    1  UNL1        0.1365
      4 N         139.7449  140.5403  166.4835 N.ar    1  UNL1       -0.1988
      5 C         138.6125  140.1665  165.5736 C.ar    1  UNL1        0.2182
      6 N         138.0273  141.1892  164.6454 N.ar    1  UNL1       -0.2098
      7 F         137.4038  144.6311  162.7707 F       1  UNL1       -0.1644
      8 C         137.9891  143.6084  163.6989 C.3     1  UNL1        0.4350
      9 F         137.2313  142.5279  162.9861 F       1  UNL1       -0.1644
     10 F         138.7469  144.6890  164.4117 F       1  UNL1       -0.1644
     11 N         141.4244  142.3107  167.3751 N.pl3   1  UNL1       -0.2977
     12 H         142.2846  142.6031  166.9960 H       1  UNL1        0.1536
     13 C         141.2461  142.2390  168.8628 C.ar    1  UNL1        0.0525
     14 C         142.1790  141.4059  169.6907 C.ar    1  UNL1        0.0353
     15 C         142.0007  141.3342  171.1783 C.ar    1  UNL1        0.1002
     16 N         140.8895  142.0957  171.8381 N.ar    1  UNL1       -0.2422
     17 C         139.9566  142.9289  171.0102 C.ar    1  UNL1        0.1002
     18 C         140.1349  143.0006  169.5226 C.ar    1  UNL1        0.0353
     19 N         138.0654  138.7699  165.5918 N.pl3   1  UNL1       -0.2990
     20 H         137.1566  138.6017  165.9309 H       1  UNL1        0.1500
     21 C         138.9030  137.6297  165.0934 C.3     1  UNL1        0.1166
     22 C         139.7190  137.7883  163.8447 C.ar    1  UNL1        0.0007
     23 C         141.2153  137.7085  163.9114 C.ar    1  UNL1        0.0007
     24 C         142.0313  137.8670  162.6628 C.ar    1  UNL1        0.0399
     25 C         141.3509  138.1053  161.3475 C.ar    1  UNL1        0.1764
     26 C         139.8545  138.1852  161.2807 C.ar    1  UNL1        0.1762
     27 C         139.0385  138.0266  162.5293 C.ar    1  UNL1        0.0376
     28 O         139.4665  138.4278  159.8522 O.3     1  UNL1       -0.4346
     29 C         140.7231  138.4979  159.0361 C.3     1  UNL1        0.4294
     30 O         141.8877  138.2986  159.9602 O.3     1  UNL1       -0.4346
@<TRIPOS>BOND
     1     7     8    1
     2     8     9    1
     3     8    10    1
     4     8     1    1
     5     1     2   ar
     6     2     3   ar
     7     3    11    1
     8    11    13    1
     9    13    14   ar
    10    14    15   ar
    11    15    16   ar
    12    16    17   ar
    13    17    18   ar
    14     3     4   ar
    15     4     5   ar
    16     5    19    1
    17    19    21    1
    18    21    22    1
    19    22    23   ar
    20    23    24   ar
    21    24    25   ar
    22    25    26   ar
    23    26    27   ar
    24    26    28    1
    25    28    29    1
    26    29    30    1
    27     5     6   ar
    28     6     1   ar
    29    18    13   ar
    30    27    22   ar
    31    30    25    1
    32    11    12    1
    33    19    20    1
@<TRIPOS>MOLECULE
*****
 30 33 0 0 0
SMALL
GASTEIGER

@<TRIPOS>ATOM
      1 C         138.8162  139.0933  165.4564 C.ar    1  UNL1        0.1582
      2 C         138.0026  140.1074  164.7083 C.ar    1  UNL1        0.0576
      3 C         138.6852  141.2277  163.9810 C.ar    1  UNL1        0.1365
      4 N         140.1814  141.3340  164.0018 N.ar    1  UNL1       -0.1988
      5 C         140.9949  140.3198  164.7499 C.ar    1  UNL1        0.2182
      6 N         140.3123  139.1995  165.4772 N.ar    1  UNL1       -0.2098
      7 F         137.4510  136.8526  166.9109 F       1  UNL1       -0.1644
      8 C         138.1336  137.9729  166.1836 C.3     1  UNL1        0.4350
      9 F         137.3546  138.9703  166.9888 F       1  UNL1       -0.1644
     10 F         138.9126  136.9756  165.3784 F       1  UNL1       -0.1644
     11 N         137.8717  142.2419  163.2329 N.pl3   1  UNL1       -0.2977
     12 H         136.8891  142.2240  163.2900 H       1  UNL1        0.1536
     13 C         138.5555  143.2835  162.3976 C.ar    1  UNL1        0.0525
     14 C         139.0407  142.9407  161.0203 C.ar    1  UNL1        0.0353
     15 C         139.7244  143.9822  160.1851 C.ar    1  UNL1        0.1002
     16 N         139.9229  145.3667  160.7271 N.ar    1  UNL1       -0.2422
     17 C         139.4377  145.7095  162.1044 C.ar    1  UNL1        0.1002
     18 C         138.7540  144.6680  162.9397 C.ar    1  UNL1        0.0353
     19 N         142.4909  140.4259  164.7708 N.pl3   1  UNL1       -0.2990
     20 H         143.0166  140.1252  163.9946 H       1  UNL1        0.1500
     21 C         143.1861  140.9903  165.9742 C.3     1  UNL1        0.1166
     22 C         142.4551  141.1010  167.2794 C.ar    1  UNL1        0.0007
     23 C         142.5018  139.9699  168.2634 C.ar    1  UNL1        0.0007
     24 C         141.7708  140.0805  169.5686 C.ar    1  UNL1        0.0399
     25 C         140.9931  141.3223  169.8897 C.ar    1  UNL1        0.1764
     26 C         140.9464  142.4535  168.9057 C.ar    1  UNL1        0.1762
     27 C         141.6774  142.3428  167.6005 C.ar    1  UNL1        0.0376
     28 O         140.1036  143.5457  169.4946 O.3     1  UNL1       -0.4346
     29 C         139.6294  143.0895  170.8425 C.3     1  UNL1        0.4294
     30 O         140.1792  141.7154  171.0868 O.3     1  UNL1       -0.4346
@<TRIPOS>BOND
     1     7     8    1
     2     8     9    1
     3     8    10    1
     4     8     1    1
     5     1     2   ar
     6     2     3   ar
     7     3    11    1
     8    11    13    1
     9    13    14   ar
    10    14    15   ar
    11    15    16   ar
    12    16    17   ar
    13    17    18   ar
    14     3     4   ar
    15     4     5   ar
    16     5    19    1
    17    19    21    1
    18    21    22    1
    19    22    23   ar
    20    23    24   ar
    21    24    25   ar
    22    25    26   ar
    23    26    27   ar
    24    26    28    1
    25    28    29    1
    26    29    30    1
    27     5     6   ar
    28     6     1   ar
    29    18    13   ar
    30    27    22   ar
    31    30    25    1
    32    11    12    1
    33    19    20    1
@<TRIPOS>MOLECULE
*****
 30 33 0 0 0
SMALL
GASTEIGER

@<TRIPOS>ATOM
      1 C         140.0298  140.7621  168.8170 C.ar    1  UNL1        0.1582
      2 C         140.5530  141.8884  167.9757 C.ar    1  UNL1        0.0576
      3 C         140.2463  141.9334  166.5081 C.ar    1  UNL1        0.1365
      4 N         139.4163  140.8523  165.8817 N.ar    1  UNL1       -0.1988
      5 C         138.8931  139.7260  166.7230 C.ar    1  UNL1        0.2182
      6 N         139.1998  139.6810  168.1906 N.ar    1  UNL1       -0.2098
      7 F         140.6432  140.6719  171.7522 F       1  UNL1       -0.1644
      8 C         140.3365  140.7170  170.2846 C.3     1  UNL1        0.4350
      9 F         139.7909  142.1054  170.4412 F       1  UNL1       -0.1644
     10 F         140.8821  139.3285  170.1279 F       1  UNL1       -0.1644
     11 N         140.7695  143.0597  165.6668 N.pl3   1  UNL1       -0.2977
     12 H         140.2330  143.8767  165.5492 H       1  UNL1        0.1536
     13 C         142.1102  142.9410  165.0045 C.ar    1  UNL1        0.0525
     14 C         142.9060  141.6771  165.1430 C.ar    1  UNL1        0.0353
     15 C         144.2466  141.5585  164.4808 C.ar    1  UNL1        0.1002
     16 N         144.7915  142.7038  163.6799 N.ar    1  UNL1       -0.2422
     17 C         143.9958  143.9677  163.5414 C.ar    1  UNL1        0.1002
     18 C         142.6551  144.0863  164.2037 C.ar    1  UNL1        0.0353
     19 N         138.0631  138.6449  166.0968 N.pl3   1  UNL1       -0.2990
     20 H         137.0807  138.7066  166.1132 H       1  UNL1        0.1500
     21 C         138.7300  137.4697  165.4455 C.3     1  UNL1        0.1166
     22 C         139.4957  137.6544  164.1688 C.ar    1  UNL1        0.0007
     23 C         138.7622  137.7967  162.8682 C.ar    1  UNL1        0.0007
     24 C         139.5278  137.9814  161.5917 C.ar    1  UNL1        0.0399
     25 C         141.0270  138.0237  161.6157 C.ar    1  UNL1        0.1764
     26 C         141.7606  137.8814  162.9164 C.ar    1  UNL1        0.1762
     27 C         140.9949  137.6967  164.1929 C.ar    1  UNL1        0.0376
     28 O         143.2309  137.9620  162.6306 O.3     1  UNL1       -0.4346
     29 C         143.4060  138.1542  161.1533 C.3     1  UNL1        0.4294
     30 O         142.0440  138.1924  160.5261 O.3     1  UNL1       -0.4346
@<TRIPOS>BOND
     1     7     8    1
     2     8     9    1
     3     8    10    1
     4     8     1    1
     5     1     2   ar
     6     2     3   ar
     7     3    11    1
     8    11    13    1
     9    13    14   ar
    10    14    15   ar
    11    15    16   ar
    12    16    17   ar
    13    17    18   ar
    14     3     4   ar
    15     4     5   ar
    16     5    19    1
    17    19    21    1
    18    21    22    1
    19    22    23   ar
    20    23    24   ar
    21    24    25   ar
    22    25    26   ar
    23    26    27   ar
    24    26    28    1
    25    28    29    1
    26    29    30    1
    27     5     6   ar
    28     6     1   ar
    29    18    13   ar
    30    27    22   ar
    31    30    25    1
    32    11    12    1
    33    19    20    1
@<TRIPOS>MOLECULE
*****
 30 33 0 0 0
SMALL
GASTEIGER

@<TRIPOS>ATOM
      1 C         138.7318  142.5714  164.5823 C.ar    1  UNL1        0.1582
      2 C         140.1588  142.8665  164.9380 C.ar    1  UNL1        0.0576
      3 C         140.9774  141.8419  165.6662 C.ar    1  UNL1        0.1365
      4 N         140.3691  140.5223  166.0386 N.ar    1  UNL1       -0.1988
      5 C         138.9420  140.2274  165.6829 C.ar    1  UNL1        0.2182
      6 N         138.1234  141.2519  164.9547 N.ar    1  UNL1       -0.2098
      7 F         137.0945  144.6205  163.1260 F       1  UNL1       -0.1644
      8 C         137.9131  143.5959  163.8542 C.3     1  UNL1        0.4350
      9 F         138.2613  144.6157  164.8976 F       1  UNL1       -0.1644
     10 F         137.5650  142.5762  162.8107 F       1  UNL1       -0.1644
     11 N         142.4045  142.1369  166.0219 N.pl3   1  UNL1       -0.2977
     12 H         142.6286  142.4732  166.9196 H       1  UNL1        0.1536
     13 C         143.4901  141.9195  165.0099 C.ar    1  UNL1        0.0525
     14 C         143.9350  143.0516  164.1323 C.ar    1  UNL1        0.0353
     15 C         145.0206  142.8342  163.1203 C.ar    1  UNL1        0.1002
     16 N         145.6613  141.4846  162.9858 N.ar    1  UNL1       -0.2422
     17 C         145.2163  140.3524  163.8634 C.ar    1  UNL1        0.1002
     18 C         144.1307  140.5698  164.8754 C.ar    1  UNL1        0.0353
     19 N         138.3336  138.9079  166.0553 N.pl3   1  UNL1       -0.2990
     20 H         137.6815  138.8566  166.7910 H       1  UNL1        0.1500
     21 C         138.7187  137.6664  165.3066 C.3     1  UNL1        0.1166
     22 C         139.4653  137.7737  164.0100 C.ar    1  UNL1        0.0007
     23 C         138.7127  137.9243  162.7214 C.ar    1  UNL1        0.0007
     24 C         139.4593  138.0316  161.4248 C.ar    1  UNL1        0.0399
     25 C         140.9586  137.9883  161.4169 C.ar    1  UNL1        0.1764
     26 C         141.7114  137.8377  162.7056 C.ar    1  UNL1        0.1762
     27 C         140.9648  137.7304  164.0022 C.ar    1  UNL1        0.0376
     28 O         143.1772  137.8263  162.3876 O.3     1  UNL1       -0.4346
     29 C         143.3304  137.9699  160.9024 C.3     1  UNL1        0.4294
     30 O         141.9592  138.0700  160.3025 O.3     1  UNL1       -0.4346
@<TRIPOS>BOND
     1     7     8    1
     2     8     9    1
     3     8    10    1
     4     8     1    1
     5     1     2   ar
     6     2     3   ar
     7     3    11    1
     8    11    13    1
     9    13    14   ar
    10    14    15   ar
    11    15    16   ar
    12    16    17   ar
    13    17    18   ar
    14     3     4   ar
    15     4     5   ar
    16     5    19    1
    17    19    21    1
    18    21    22    1
    19    22    23   ar
    20    23    24   ar
    21    24    25   ar
    22    25    26   ar
    23    26    27   ar
    24    26    28    1
    25    28    29    1
    26    29    30    1
    27     5     6   ar
    28     6     1   ar
    29    18    13   ar
    30    27    22   ar
    31    30    25    1
    32    11    12    1
    33    19    20    1
@<TRIPOS>MOLECULE
*****
 30 33 0 0 0
SMALL
GASTEIGER

@<TRIPOS>ATOM
      1 C         138.4939  139.3087  166.3203 C.ar    1  UNL1        0.1582
      2 C         138.1218  140.0303  165.0590 C.ar    1  UNL1        0.0576
      3 C         138.6479  141.4112  164.8018 C.ar    1  UNL1        0.1365
      4 N         139.5462  142.0707  165.8060 N.ar    1  UNL1       -0.1988
      5 C         139.9183  141.3492  167.0673 C.ar    1  UNL1        0.2182
      6 N         139.3921  139.9682  167.3244 N.ar    1  UNL1       -0.2098
      7 F         137.4417  136.5468  166.8345 F       1  UNL1       -0.1644
      8 C         137.9678  137.9278  166.5774 C.3     1  UNL1        0.4350
      9 F         137.1232  138.4582  167.6978 F       1  UNL1       -0.1644
     10 F         138.8124  137.3974  165.4570 F       1  UNL1       -0.1644
     11 N         138.2758  142.1328  163.5405 N.pl3   1  UNL1       -0.2977
     12 H         137.4262  141.9267  163.0878 H       1  UNL1        0.1536
     13 C         139.1981  143.1685  162.9690 C.ar    1  UNL1        0.0525
     14 C         138.7376  144.5895  162.8324 C.ar    1  UNL1        0.0353
     15 C         139.6600  145.6252  162.2609 C.ar    1  UNL1        0.1002
     16 N         141.0428  145.2399  161.8259 N.ar    1  UNL1       -0.2422
     17 C         141.5033  143.8189  161.9625 C.ar    1  UNL1        0.1002
     18 C         140.5810  142.7832  162.5340 C.ar    1  UNL1        0.0353
     19 N         140.8165  142.0085  168.0715 N.pl3   1  UNL1       -0.2990
     20 H         140.4330  142.5861  168.7705 H       1  UNL1        0.1500
     21 C         142.2989  141.7880  168.0106 C.3     1  UNL1        0.1166
     22 C         142.9474  141.4033  166.7137 C.ar    1  UNL1        0.0007
     23 C         143.0996  139.9558  166.3516 C.ar    1  UNL1        0.0007
     24 C         143.7479  139.5711  165.0549 C.ar    1  UNL1        0.0399
     25 C         144.2441  140.6342  164.1202 C.ar    1  UNL1        0.1764
     26 C         144.0919  142.0819  164.4822 C.ar    1  UNL1        0.1762
     27 C         143.4435  142.4665  165.7790 C.ar    1  UNL1        0.0376
     28 O         144.6733  142.9018  163.3688 O.3     1  UNL1       -0.4346
     29 C         145.1849  141.9608  162.3186 C.3     1  UNL1        0.4294
     30 O         144.9196  140.5594  162.7830 O.3     1  UNL1       -0.4346
@<TRIPOS>BOND
     1     7     8    1
     2     8     9    1
     3     8    10    1
     4     8     1    1
     5     1     2   ar
     6     2     3   ar
     7     3    11    1
     8    11    13    1
     9    13    14   ar
    10    14    15   ar
    11    15    16   ar
    12    16    17   ar
    13    17    18   ar
    14     3     4   ar
    15     4     5   ar
    16     5    19    1
    17    19    21    1
    18    21    22    1
    19    22    23   ar
    20    23    24   ar
    21    24    25   ar
    22    25    26   ar
    23    26    27   ar
    24    26    28    1
    25    28    29    1
    26    29    30    1
    27     5     6   ar
    28     6     1   ar
    29    18    13   ar
    30    27    22   ar
    31    30    25    1
    32    11    12    1
    33    19    20    1
@<TRIPOS>MOLECULE
*****
 30 33 0 0 0
SMALL
GASTEIGER

@<TRIPOS>ATOM
      1 C         138.5078  139.5286  165.9676 C.ar    1  UNL1        0.1582
      2 C         139.6106  140.1789  166.7493 C.ar    1  UNL1        0.0576
      3 C         140.0045  141.5957  166.4539 C.ar    1  UNL1        0.1365
      4 N         139.2957  142.3624  165.3769 N.ar    1  UNL1       -0.1988
      5 C         138.1930  141.7121  164.5952 C.ar    1  UNL1        0.2182
      6 N         137.7990  140.2952  164.8906 N.ar    1  UNL1       -0.2098
      7 F         137.7198  136.6948  166.5583 F       1  UNL1       -0.1644
      8 C         138.1138  138.1117  166.2629 C.3     1  UNL1        0.4350
      9 F         139.0726  137.6269  165.2162 F       1  UNL1       -0.1644
     10 F         137.1550  138.5965  167.3096 F       1  UNL1       -0.1644
     11 N         141.1073  142.2461  167.2356 N.pl3   1  UNL1       -0.2977
     12 H         141.6784  142.9253  166.8093 H       1  UNL1        0.1536
     13 C         141.3399  141.8615  168.6667 C.ar    1  UNL1        0.0525
     14 C         140.4243  142.3729  169.7391 C.ar    1  UNL1        0.0353
     15 C         140.6568  141.9883  171.1701 C.ar    1  UNL1        0.1002
     16 N         141.8051  141.0924  171.5289 N.ar    1  UNL1       -0.2422
     17 C         142.7207  140.5810  170.4565 C.ar    1  UNL1        0.1002
     18 C         142.4881  140.9655  169.0254 C.ar    1  UNL1        0.0353
     19 N         137.4842  142.4786  163.5182 N.pl3   1  UNL1       -0.2990
     20 H         136.5402  142.7326  163.6347 H       1  UNL1        0.1500
     21 C         138.2137  142.8582  162.2637 C.3     1  UNL1        0.1166
     22 C         139.6043  143.4149  162.3440 C.ar    1  UNL1        0.0007
     23 C         139.8175  144.8461  162.7391 C.ar    1  UNL1        0.0007
     24 C         141.2080  145.4028  162.8193 C.ar    1  UNL1        0.0399
     25 C         142.3853  144.5283  162.5045 C.ar    1  UNL1        0.1764
     26 C         142.1721  143.0971  162.1094 C.ar    1  UNL1        0.1762
     27 C         140.7816  142.5403  162.0291 C.ar    1  UNL1        0.0376
     28 O         143.5162  142.4803  161.8585 O.3     1  UNL1       -0.4346
     29 C         144.5601  143.5304  162.0985 C.3     1  UNL1        0.4294
     30 O         143.8612  144.7961  162.4978 O.3     1  UNL1       -0.4346
@<TRIPOS>BOND
     1     7     8    1
     2     8     9    1
     3     8    10    1
     4     8     1    1
     5     1     2   ar
     6     2     3   ar
     7     3    11    1
     8    11    13    1
     9    13    14   ar
    10    14    15   ar
    11    15    16   ar
    12    16    17   ar
    13    17    18   ar
    14     3     4   ar
    15     4     5   ar
    16     5    19    1
    17    19    21    1
    18    21    22    1
    19    22    23   ar
    20    23    24   ar
    21    24    25   ar
    22    25    26   ar
    23    26    27   ar
    24    26    28    1
    25    28    29    1
    26    29    30    1
    27     5     6   ar
    28     6     1   ar
    29    18    13   ar
    30    27    22   ar
    31    30    25    1
    32    11    12    1
    33    19    20    1
