@<TRIPOS>MOLECULE
*****
 27 30 0 0 0
SMALL
GASTEIGER

@<TRIPOS>ATOM
      1 C         140.6507  143.8592  162.0323 C.ar    1  UNL1        0.1219
      2 C         141.0401  142.4118  161.9735 C.ar    1  UNL1        0.0199
      3 C         140.6445  141.4830  163.0830 C.ar    1  UNL1        0.0011
      4 C         139.8593  142.0016  164.2511 C.ar    1  UNL1       -0.0029
      5 C         139.4699  143.4489  164.3099 C.ar    1  UNL1        0.0011
      6 C         139.8655  144.3777  163.2005 C.ar    1  UNL1        0.0199
      7 C         139.4637  141.0728  165.3606 C.2     1  UNL1       -0.0027
      8 C         138.3695  140.0697  165.1447 C.2     1  UNL1        0.0471
      9 C         137.9738  139.1410  166.2542 C.2     1  UNL1        0.2354
     10 N         138.6724  139.2153  167.5795 N.2     1  UNL1       -0.0341
     11 C         139.7666  140.2183  167.7954 C.2     1  UNL1        0.3588
     12 N         140.6287  140.5229  168.9845 N.2     1  UNL1       -0.0428
     13 C         141.5572  141.6399  168.6099 C.2     1  UNL1        0.1669
     14 C         141.2689  142.0257  167.1894 C.2     1  UNL1        0.0323
     15 C         140.1622  141.1471  166.6859 C.3     1  UNL1        0.1596
     16 C         142.5923  142.2619  169.4998 C.3     1  UNL1        0.0658
     17 C         142.9499  143.1700  170.6388 C.3     1  UNL1        0.0087
     18 C         144.0274  142.4311  169.9020 C.3     1  UNL1        0.0087
     19 O         139.6070  145.1578  160.7193 O.2     1  UNL1       -0.1530
     20 S         141.0463  144.7879  160.9229 S.O2    1  UNL1        0.0603
     21 O         142.4856  144.4181  161.1266 O.2     1  UNL1       -0.1530
     22 N         141.4419  145.7167  159.8135 N.3     1  UNL1       -0.1768
     23 H         142.4505  145.8505  159.8871 H       1  UNL1        0.1489
     24 C         141.1571  145.3467  158.3881 C.3     1  UNL1        0.1231
     25 C         142.2425  144.7616  157.5338 C.3     1  UNL1        0.1559
     26 O         143.4341  144.1139  158.1746 O.3     1  UNL1       -0.3805
     27 H         143.9475  144.7833  158.6535 H       1  UNL1        0.2105
@<TRIPOS>BOND
     1    19    20    2
     2    20    21    2
     3    20    22    1
     4    22    24    1
     5    24    25    1
     6    25    26    1
     7    20     1    1
     8     1     2   ar
     9     2     3   ar
    10     3     4   ar
    11     4     7    1
    12     7     8    2
    13     8     9    1
    14     9    10    2
    15    10    11    1
    16    11    12    2
    17    12    13    1
    18    13    16    1
    19    16    17    1
    20    17    18    1
    21    13    14    2
    22    14    15    1
    23     4     5   ar
    24     5     6   ar
    25     6     1   ar
    26    15     7    1
    27    15    11    1
    28    18    16    1
    29    22    23    1
    30    26    27    1
@<TRIPOS>MOLECULE
*****
 27 30 0 0 0
SMALL
GASTEIGER

@<TRIPOS>ATOM
      1 C         139.6514  140.1141  168.5606 C.ar    1  UNL1        0.1219
      2 C         140.9950  140.7225  168.8340 C.ar    1  UNL1        0.0199
      3 C         141.9881  140.8789  167.7207 C.ar    1  UNL1        0.0011
      4 C         141.6376  140.4270  166.3341 C.ar    1  UNL1       -0.0029
      5 C         140.2941  139.8186  166.0606 C.ar    1  UNL1        0.0011
      6 C         139.3010  139.6621  167.1738 C.ar    1  UNL1        0.0199
      7 C         142.6307  140.5834  165.2208 C.2     1  UNL1       -0.0027
      8 C         143.8282  139.6828  165.1519 C.2     1  UNL1        0.0471
      9 C         144.8212  139.8392  164.0386 C.2     1  UNL1        0.2354
     10 N         144.6168  140.8963  162.9943 N.2     1  UNL1       -0.0341
     11 C         143.4193  141.7970  163.0632 C.2     1  UNL1        0.3588
     12 N         142.9563  142.9203  162.1835 N.2     1  UNL1       -0.0428
     13 C         141.6771  143.4582  162.7532 C.2     1  UNL1        0.1669
     14 C         141.3495  142.6672  163.9848 C.2     1  UNL1        0.0323
     15 C         142.4263  141.6405  164.1764 C.3     1  UNL1        0.1596
     16 C         140.8677  144.5885  162.1899 C.3     1  UNL1        0.0658
     17 C         139.7955  145.6250  162.3513 C.3     1  UNL1        0.0087
     18 C         140.5379  145.5098  161.0531 C.3     1  UNL1        0.0087
     19 O         137.7883  139.1241  168.7804 O.2     1  UNL1       -0.1530
     20 S         138.6584  139.9576  169.6738 S.O2    1  UNL1        0.0603
     21 O         139.5284  140.7912  170.5671 O.2     1  UNL1       -0.1530
     22 N         137.6653  139.8012  170.7870 N.3     1  UNL1       -0.1768
     23 H         137.2204  140.7101  170.9146 H       1  UNL1        0.1489
     24 C         136.5620  138.7915  170.6715 C.3     1  UNL1        0.1231
     25 C         136.1573  137.9826  171.8682 C.3     1  UNL1        0.1559
     26 O         136.4022  136.5029  171.8909 O.3     1  UNL1       -0.3805
     27 H         135.8564  136.0744  171.2131 H       1  UNL1        0.2105
@<TRIPOS>BOND
     1    19    20    2
     2    20    21    2
     3    20    22    1
     4    22    24    1
     5    24    25    1
     6    25    26    1
     7    20     1    1
     8     1     2   ar
     9     2     3   ar
    10     3     4   ar
    11     4     7    1
    12     7     8    2
    13     8     9    1
    14     9    10    2
    15    10    11    1
    16    11    12    2
    17    12    13    1
    18    13    16    1
    19    16    17    1
    20    17    18    1
    21    13    14    2
    22    14    15    1
    23     4     5   ar
    24     5     6   ar
    25     6     1   ar
    26    15     7    1
    27    15    11    1
    28    18    16    1
    29    22    23    1
    30    26    27    1
@<TRIPOS>MOLECULE
*****
 27 30 0 0 0
SMALL
GASTEIGER

@<TRIPOS>ATOM
      1 C         140.7811  139.7634  167.7351 C.ar    1  UNL1        0.1219
      2 C         141.6909  139.6659  166.5465 C.ar    1  UNL1        0.0199
      3 C         141.1146  139.6242  165.1622 C.ar    1  UNL1        0.0011
      4 C         139.6285  139.6798  164.9665 C.ar    1  UNL1       -0.0029
      5 C         138.7186  139.7773  166.1551 C.ar    1  UNL1        0.0011
      6 C         139.2949  139.8191  167.5393 C.ar    1  UNL1        0.0199
      7 C         139.0521  139.6381  163.5823 C.2     1  UNL1       -0.0027
      8 C         138.4457  138.3693  163.0603 C.2     1  UNL1        0.0471
      9 C         137.8694  138.3276  161.6761 C.2     1  UNL1        0.2354
     10 N         137.8995  139.5546  160.8138 N.2     1  UNL1       -0.0341
     11 C         138.5060  140.8234  161.3358 C.2     1  UNL1        0.3588
     12 N         138.6775  142.1809  160.7212 N.2     1  UNL1       -0.0428
     13 C         139.3597  143.0616  161.7256 C.2     1  UNL1        0.1669
     14 C         139.6100  142.2484  162.9609 C.2     1  UNL1        0.0323
     15 C         139.0823  140.8651  162.7200 C.3     1  UNL1        0.1596
     16 C         139.7273  144.5026  161.5291 C.3     1  UNL1        0.0658
     17 C         139.7842  145.9105  162.0434 C.3     1  UNL1        0.0087
     18 C         140.3069  145.5905  160.6744 C.3     1  UNL1        0.0087
     19 O         142.7396  139.8787  168.5416 O.2     1  UNL1       -0.1530
     20 S         141.3573  139.8052  169.1193 S.O2    1  UNL1        0.0603
     21 O         139.9750  139.7316  169.6970 O.2     1  UNL1       -0.1530
     22 N         141.9336  139.8469  170.5035 N.3     1  UNL1       -0.1768
     23 H         142.9280  139.6379  170.4149 H       1  UNL1        0.1489
     24 C         141.8255  141.0983  171.3234 C.3     1  UNL1        0.1231
     25 C         142.0008  142.4386  170.6730 C.3     1  UNL1        0.1559
     26 O         143.0658  143.3755  171.1608 O.3     1  UNL1       -0.3805
     27 H         142.8573  143.6596  172.0645 H       1  UNL1        0.2105
@<TRIPOS>BOND
     1    19    20    2
     2    20    21    2
     3    20    22    1
     4    22    24    1
     5    24    25    1
     6    25    26    1
     7    20     1    1
     8     1     2   ar
     9     2     3   ar
    10     3     4   ar
    11     4     7    1
    12     7     8    2
    13     8     9    1
    14     9    10    2
    15    10    11    1
    16    11    12    2
    17    12    13    1
    18    13    16    1
    19    16    17    1
    20    17    18    1
    21    13    14    2
    22    14    15    1
    23     4     5   ar
    24     5     6   ar
    25     6     1   ar
    26    15     7    1
    27    15    11    1
    28    18    16    1
    29    22    23    1
    30    26    27    1
@<TRIPOS>MOLECULE
*****
 27 30 0 0 0
SMALL
GASTEIGER

@<TRIPOS>ATOM
      1 C         142.2308  142.0644  167.3236 C.ar    1  UNL1        0.1219
      2 C         140.7898  142.4613  167.1971 C.ar    1  UNL1        0.0199
      3 C         140.2855  143.0565  165.9159 C.ar    1  UNL1        0.0011
      4 C         141.2221  143.2548  164.7613 C.ar    1  UNL1       -0.0029
      5 C         142.6631  142.8579  164.8877 C.ar    1  UNL1        0.0011
      6 C         143.1675  142.2627  166.1688 C.ar    1  UNL1        0.0199
      7 C         140.7178  143.8500  163.4800 C.2     1  UNL1       -0.0027
      8 C         140.6268  145.3397  163.3298 C.2     1  UNL1        0.0471
      9 C         140.1225  145.9348  162.0487 C.2     1  UNL1        0.2354
     10 N         139.7091  145.0403  160.9177 N.2     1  UNL1       -0.0341
     11 C         139.8002  143.5507  161.0679 C.2     1  UNL1        0.3588
     12 N         139.4674  142.4254  160.1336 N.2     1  UNL1       -0.0428
     13 C         139.7660  141.1348  160.8372 C.2     1  UNL1        0.1669
     14 C         140.2834  141.4624  162.2065 C.2     1  UNL1        0.0323
     15 C         140.3045  142.9555  162.3491 C.3     1  UNL1        0.1596
     16 C         139.5799  139.7583  160.2710 C.3     1  UNL1        0.0658
     17 C         139.6026  138.8214  159.0998 C.3     1  UNL1        0.0087
     18 C         139.2349  138.3110  160.4614 C.3     1  UNL1        0.0087
     19 O         142.6508  140.0986  168.0011 O.2     1  UNL1       -0.1530
     20 S         142.7352  141.4692  168.6047 S.O2    1  UNL1        0.0603
     21 O         142.8195  142.8397  169.2083 O.2     1  UNL1       -0.1530
     22 N         143.2395  140.8740  169.8858 N.3     1  UNL1       -0.1768
     23 H         143.9186  141.5317  170.2688 H       1  UNL1        0.1489
     24 C         142.2791  140.5502  170.9916 C.3     1  UNL1        0.1231
     25 C         140.8058  140.4994  170.7145 C.3     1  UNL1        0.1559
     26 O         139.9491  139.4749  171.3976 O.3     1  UNL1       -0.3805
     27 H         140.2018  138.5886  171.0952 H       1  UNL1        0.2105
@<TRIPOS>BOND
     1    19    20    2
     2    20    21    2
     3    20    22    1
     4    22    24    1
     5    24    25    1
     6    25    26    1
     7    20     1    1
     8     1     2   ar
     9     2     3   ar
    10     3     4   ar
    11     4     7    1
    12     7     8    2
    13     8     9    1
    14     9    10    2
    15    10    11    1
    16    11    12    2
    17    12    13    1
    18    13    16    1
    19    16    17    1
    20    17    18    1
    21    13    14    2
    22    14    15    1
    23     4     5   ar
    24     5     6   ar
    25     6     1   ar
    26    15     7    1
    27    15    11    1
    28    18    16    1
    29    22    23    1
    30    26    27    1
@<TRIPOS>MOLECULE
*****
 27 30 0 0 0
SMALL
GASTEIGER

@<TRIPOS>ATOM
      1 C         140.8015  143.6360  161.3645 C.ar    1  UNL1        0.1219
      2 C         141.7905  142.5748  161.7463 C.ar    1  UNL1        0.0199
      3 C         141.3968  141.4940  162.7091 C.ar    1  UNL1        0.0011
      4 C         140.0140  141.4743  163.2900 C.ar    1  UNL1       -0.0029
      5 C         139.0249  142.5354  162.9082 C.ar    1  UNL1        0.0011
      6 C         139.4186  143.6162  161.9455 C.ar    1  UNL1        0.0199
      7 C         139.6202  140.3935  164.2527 C.2     1  UNL1       -0.0027
      8 C         139.1368  139.0702  163.7379 C.2     1  UNL1        0.0471
      9 C         138.7430  137.9894  164.7006 C.2     1  UNL1        0.2354
     10 N         138.8327  138.2320  166.1782 N.2     1  UNL1       -0.0341
     11 C         139.3161  139.5553  166.6930 C.2     1  UNL1        0.3588
     12 N         139.5092  140.0812  168.0844 N.2     1  UNL1       -0.0428
     13 C         140.0222  141.4870  167.9817 C.2     1  UNL1        0.1669
     14 C         140.1463  141.8299  166.5267 C.2     1  UNL1        0.0323
     15 C         139.7099  140.6360  165.7302 C.3     1  UNL1        0.1596
     16 C         140.3531  142.3911  169.1320 C.3     1  UNL1        0.0658
     17 C         139.9707  143.0289  170.4347 C.3     1  UNL1        0.0087
     18 C         141.3086  143.3191  169.8217 C.3     1  UNL1        0.0087
     19 O         139.7642  144.8577  159.9749 O.2     1  UNL1       -0.1530
     20 S         141.1952  144.7168  160.4018 S.O2    1  UNL1        0.0603
     21 O         142.6262  144.5758  160.8288 O.2     1  UNL1       -0.1530
     22 N         141.5889  145.7976  159.4392 N.3     1  UNL1       -0.1768
     23 H         142.4464  146.2155  159.8003 H       1  UNL1        0.1489
     24 C         141.8433  145.4632  157.9992 C.3     1  UNL1        0.1231
     25 C         142.4564  144.1442  157.6325 C.3     1  UNL1        0.1559
     26 O         143.8352  143.7989  158.1117 O.3     1  UNL1       -0.3805
     27 H         144.4793  144.3969  157.7014 H       1  UNL1        0.2105
@<TRIPOS>BOND
     1    19    20    2
     2    20    21    2
     3    20    22    1
     4    22    24    1
     5    24    25    1
     6    25    26    1
     7    20     1    1
     8     1     2   ar
     9     2     3   ar
    10     3     4   ar
    11     4     7    1
    12     7     8    2
    13     8     9    1
    14     9    10    2
    15    10    11    1
    16    11    12    2
    17    12    13    1
    18    13    16    1
    19    16    17    1
    20    17    18    1
    21    13    14    2
    22    14    15    1
    23     4     5   ar
    24     5     6   ar
    25     6     1   ar
    26    15     7    1
    27    15    11    1
    28    18    16    1
    29    22    23    1
    30    26    27    1
@<TRIPOS>MOLECULE
*****
 27 30 0 0 0
SMALL
GASTEIGER

@<TRIPOS>ATOM
      1 C         142.1001  138.8299  164.2457 C.ar    1  UNL1        0.1219
      2 C         142.9400  138.4091  165.4151 C.ar    1  UNL1        0.0199
      3 C         142.8582  139.1653  166.7080 C.ar    1  UNL1        0.0011
      4 C         141.9366  140.3423  166.8315 C.ar    1  UNL1       -0.0029
      5 C         141.0967  140.7631  165.6621 C.ar    1  UNL1        0.0011
      6 C         141.1785  140.0070  164.3692 C.ar    1  UNL1        0.0199
      7 C         141.8547  141.0985  168.1244 C.2     1  UNL1       -0.0027
      8 C         142.9214  142.0906  168.4817 C.2     1  UNL1        0.0471
      9 C         142.8396  142.8468  169.7746 C.2     1  UNL1        0.2354
     10 N         141.6911  142.6107  170.7101 N.2     1  UNL1       -0.0341
     11 C         140.6244  141.6186  170.3527 C.2     1  UNL1        0.3588
     12 N         139.3827  141.1778  171.0697 N.2     1  UNL1       -0.0428
     13 C         138.6972  140.1492  170.2199 C.2     1  UNL1        0.1669
     14 C         139.5151  139.9543  168.9778 C.2     1  UNL1        0.0323
     15 C         140.7062  140.8624  169.0599 C.3     1  UNL1        0.1596
     16 C         137.4182  139.4401  170.5538 C.3     1  UNL1        0.0658
     17 C         136.4707  138.2981  170.3347 C.3     1  UNL1        0.0087
     18 C         136.1505  139.3538  171.3510 C.3     1  UNL1        0.0087
     19 O         141.0647  137.1807  163.4045 O.2     1  UNL1       -0.1530
     20 S         142.1819  138.0738  162.9528 S.O2    1  UNL1        0.0603
     21 O         143.2991  138.9669  162.5012 O.2     1  UNL1       -0.1530
     22 N         142.2637  137.3177  161.6600 N.3     1  UNL1       -0.1768
     23 H         141.6873  136.4833  161.7699 H       1  UNL1        0.1489
     24 C         141.8374  137.9728  160.3797 C.3     1  UNL1        0.1231
     25 C         140.4091  138.3899  160.1900 C.3     1  UNL1        0.1559
     26 O         139.3151  137.6761  160.9273 O.3     1  UNL1       -0.3805
     27 H         139.2594  136.7594  160.6150 H       1  UNL1        0.2105
@<TRIPOS>BOND
     1    19    20    2
     2    20    21    2
     3    20    22    1
     4    22    24    1
     5    24    25    1
     6    25    26    1
     7    20     1    1
     8     1     2   ar
     9     2     3   ar
    10     3     4   ar
    11     4     7    1
    12     7     8    2
    13     8     9    1
    14     9    10    2
    15    10    11    1
    16    11    12    2
    17    12    13    1
    18    13    16    1
    19    16    17    1
    20    17    18    1
    21    13    14    2
    22    14    15    1
    23     4     5   ar
    24     5     6   ar
    25     6     1   ar
    26    15     7    1
    27    15    11    1
    28    18    16    1
    29    22    23    1
    30    26    27    1
@<TRIPOS>MOLECULE
*****
 27 30 0 0 0
SMALL
GASTEIGER

@<TRIPOS>ATOM
      1 C         142.8658  138.6624  160.5603 C.ar    1  UNL1        0.1219
      2 C         143.8445  139.5719  161.2423 C.ar    1  UNL1        0.0199
      3 C         143.7027  139.8631  162.7070 C.ar    1  UNL1        0.0011
      4 C         142.5823  139.2449  163.4896 C.ar    1  UNL1       -0.0029
      5 C         141.6037  138.3354  162.8076 C.ar    1  UNL1        0.0011
      6 C         141.7454  138.0442  161.3430 C.ar    1  UNL1        0.0199
      7 C         142.4406  139.5362  164.9542 C.2     1  UNL1       -0.0027
      8 C         143.1698  138.6956  165.9601 C.2     1  UNL1        0.0471
      9 C         143.0280  138.9869  167.4246 C.2     1  UNL1        0.2354
     10 N         142.1570  140.1187  167.8834 N.2     1  UNL1       -0.0341
     11 C         141.4279  140.9592  166.8775 C.2     1  UNL1        0.3588
     12 N         140.5055  142.1323  167.0297 N.2     1  UNL1       -0.0428
     13 C         140.0771  142.5660  165.6591 C.2     1  UNL1        0.1669
     14 C         140.7348  141.6610  164.6599 C.2     1  UNL1        0.0323
     15 C         141.5697  140.6680  165.4130 C.3     1  UNL1        0.1596
     16 C         139.1533  143.7048  165.3432 C.3     1  UNL1        0.0658
     17 C         138.5390  145.0212  165.7170 C.3     1  UNL1        0.0087
     18 C         138.1675  144.3608  164.4224 C.3     1  UNL1        0.0087
     19 O         143.1227  139.8400  158.8148 O.2     1  UNL1       -0.1530
     20 S         143.0075  138.3711  159.0957 S.O2    1  UNL1        0.0603
     21 O         142.8923  136.9022  159.3767 O.2     1  UNL1       -0.1530
     22 N         143.1492  138.0799  157.6312 N.3     1  UNL1       -0.1768
     23 H         144.0678  138.4230  157.3502 H       1  UNL1        0.1489
     24 C         143.0433  136.6689  157.1334 C.3     1  UNL1        0.1231
     25 C         143.7348  136.2674  155.8642 C.3     1  UNL1        0.1559
     26 O         144.9027  137.0636  155.3623 O.3     1  UNL1       -0.3805
     27 H         144.6043  137.9517  155.1107 H       1  UNL1        0.2105
@<TRIPOS>BOND
     1    19    20    2
     2    20    21    2
     3    20    22    1
     4    22    24    1
     5    24    25    1
     6    25    26    1
     7    20     1    1
     8     1     2   ar
     9     2     3   ar
    10     3     4   ar
    11     4     7    1
    12     7     8    2
    13     8     9    1
    14     9    10    2
    15    10    11    1
    16    11    12    2
    17    12    13    1
    18    13    16    1
    19    16    17    1
    20    17    18    1
    21    13    14    2
    22    14    15    1
    23     4     5   ar
    24     5     6   ar
    25     6     1   ar
    26    15     7    1
    27    15    11    1
    28    18    16    1
    29    22    23    1
    30    26    27    1
@<TRIPOS>MOLECULE
*****
 27 30 0 0 0
SMALL
GASTEIGER

@<TRIPOS>ATOM
      1 C         138.6530  139.4106  168.3077 C.ar    1  UNL1        0.1219
      2 C         140.0895  139.8336  168.2217 C.ar    1  UNL1        0.0199
      3 C         140.8230  139.7369  166.9167 C.ar    1  UNL1        0.0011
      4 C         140.1199  139.2171  165.6979 C.ar    1  UNL1       -0.0029
      5 C         138.6834  138.7941  165.7840 C.ar    1  UNL1        0.0011
      6 C         137.9499  138.8908  167.0888 C.ar    1  UNL1        0.0199
      7 C         140.8534  139.1204  164.3930 C.2     1  UNL1       -0.0027
      8 C         140.7640  137.8672  163.5736 C.2     1  UNL1        0.0471
      9 C         141.4975  137.7705  162.2687 C.2     1  UNL1        0.2354
     10 N         142.3202  138.9270  161.7833 N.2     1  UNL1       -0.0341
     11 C         142.4096  140.1802  162.6028 C.2     1  UNL1        0.3588
     12 N         143.1370  141.4734  162.3830 N.2     1  UNL1       -0.0428
     13 C         142.8532  142.3694  163.5521 C.2     1  UNL1        0.1669
     14 C         141.9503  141.6299  164.4943 C.2     1  UNL1        0.0323
     15 C         141.6761  140.2769  163.9076 C.3     1  UNL1        0.1596
     16 C         143.3798  143.7607  163.7449 C.3     1  UNL1        0.0658
     17 C         143.7381  145.1037  163.1813 C.3     1  UNL1        0.0087
     18 C         143.9336  144.8273  164.6425 C.3     1  UNL1        0.0087
     19 O         138.9209  140.5116  170.1010 O.2     1  UNL1       -0.1530
     20 S         137.9195  139.5073  169.6125 S.O2    1  UNL1        0.0603
     21 O         136.9181  138.5030  169.1241 O.2     1  UNL1       -0.1530
     22 N         137.1860  139.6041  170.9174 N.3     1  UNL1       -0.1768
     23 H         136.7880  140.5421  170.9625 H       1  UNL1        0.1489
     24 C         136.0735  138.6462  171.2251 C.3     1  UNL1        0.1231
     25 C         136.1774  137.7315  172.4095 C.3     1  UNL1        0.1559
     26 O         136.2085  136.2453  172.2087 O.3     1  UNL1       -0.3805
     27 H         135.3573  135.9497  171.8496 H       1  UNL1        0.2105
@<TRIPOS>BOND
     1    19    20    2
     2    20    21    2
     3    20    22    1
     4    22    24    1
     5    24    25    1
     6    25    26    1
     7    20     1    1
     8     1     2   ar
     9     2     3   ar
    10     3     4   ar
    11     4     7    1
    12     7     8    2
    13     8     9    1
    14     9    10    2
    15    10    11    1
    16    11    12    2
    17    12    13    1
    18    13    16    1
    19    16    17    1
    20    17    18    1
    21    13    14    2
    22    14    15    1
    23     4     5   ar
    24     5     6   ar
    25     6     1   ar
    26    15     7    1
    27    15    11    1
    28    18    16    1
    29    22    23    1
    30    26    27    1
@<TRIPOS>MOLECULE
*****
 27 30 0 0 0
SMALL
GASTEIGER

@<TRIPOS>ATOM
      1 C         140.0313  141.3608  168.0991 C.ar    1  UNL1        0.1219
      2 C         140.3972  142.6621  167.4490 C.ar    1  UNL1        0.0199
      3 C         140.1272  142.8730  165.9886 C.ar    1  UNL1        0.0011
      4 C         139.4914  141.7825  165.1783 C.ar    1  UNL1       -0.0029
      5 C         139.1255  140.4811  165.8284 C.ar    1  UNL1        0.0011
      6 C         139.3954  140.2702  167.2887 C.ar    1  UNL1        0.0199
      7 C         139.2215  141.9933  163.7179 C.2     1  UNL1       -0.0027
      8 C         138.1172  142.9111  163.2842 C.2     1  UNL1        0.0471
      9 C         137.8473  143.1219  161.8238 C.2     1  UNL1        0.2354
     10 N         138.6817  142.4149  160.7972 N.2     1  UNL1       -0.0341
     11 C         139.7860  141.4972  161.2309 C.2     1  UNL1        0.3588
     12 N         140.7672  140.6702  160.4541 N.2     1  UNL1       -0.0428
     13 C         141.6435  139.9483  161.4344 C.2     1  UNL1        0.1669
     14 C         141.2039  140.3291  162.8171 C.2     1  UNL1        0.0323
     15 C         140.0559  141.2864  162.6913 C.3     1  UNL1        0.1596
     16 C         142.7629  139.0102  161.0921 C.3     1  UNL1        0.0658
     17 C         143.2530  137.6212  160.8091 C.3     1  UNL1        0.0087
     18 C         144.2115  138.7746  160.7822 C.3     1  UNL1        0.0087
     19 O         139.7679  139.7517  169.4561 O.2     1  UNL1       -0.1530
     20 S         140.3012  141.1499  169.5594 S.O2    1  UNL1        0.0603
     21 O         140.8344  142.5480  169.6628 O.2     1  UNL1       -0.1530
     22 N         140.5711  140.9390  171.0198 N.3     1  UNL1       -0.1768
     23 H         140.0571  140.1025  171.2964 H       1  UNL1        0.1489
     24 C         141.9796  140.7618  171.5042 C.3     1  UNL1        0.1231
     25 C         142.9403  139.9148  170.7233 C.3     1  UNL1        0.1559
     26 O         142.5729  138.5074  170.3571 O.3     1  UNL1       -0.3805
     27 H         142.5020  137.9717  171.1627 H       1  UNL1        0.2105
@<TRIPOS>BOND
     1    19    20    2
     2    20    21    2
     3    20    22    1
     4    22    24    1
     5    24    25    1
     6    25    26    1
     7    20     1    1
     8     1     2   ar
     9     2     3   ar
    10     3     4   ar
    11     4     7    1
    12     7     8    2
    13     8     9    1
    14     9    10    2
    15    10    11    1
    16    11    12    2
    17    12    13    1
    18    13    16    1
    19    16    17    1
    20    17    18    1
    21    13    14    2
    22    14    15    1
    23     4     5   ar
    24     5     6   ar
    25     6     1   ar
    26    15     7    1
    27    15    11    1
    28    18    16    1
    29    22    23    1
    30    26    27    1
