@<TRIPOS>MOLECULE
*****
 35 39 0 0 0
SMALL
GASTEIGER

@<TRIPOS>ATOM
      1 C         140.9127  144.6721  160.3543 C.3     1  UNL1        0.2722
      2 N         138.9236  143.2113  159.5420 N.am    1  UNL1       -0.2651
      3 C         140.2208  143.9107  159.2626 C.2     1  UNL1        0.2701
      4 O         140.8261  143.8487  157.8916 O.2     1  UNL1       -0.2707
      5 H         138.5263  143.2520  160.4419 H       1  UNL1        0.1564
      6 C         136.1560  140.1658  155.1757 C.3     1  UNL1        0.0538
      7 C         136.8479  140.9272  156.2673 C.ar    1  UNL1        0.0786
      8 C         136.9780  142.4187  156.1751 C.ar    1  UNL1        0.1150
      9 N         137.6699  143.1801  157.2667 N.ar    1  UNL1       -0.2262
     10 C         138.2317  142.4499  158.4505 C.ar    1  UNL1        0.1536
     11 C         138.1016  140.9585  158.5427 C.ar    1  UNL1        0.1328
     12 N         137.4096  140.1970  157.4511 N.ar    1  UNL1       -0.2436
     13 C         140.1888  145.7673  161.0798 C.3     1  UNL1        0.1950
     14 O         138.8310  145.5106  161.6631 O.3     1  UNL1       -0.3519
     15 C         138.6977  144.7336  162.9394 C.3     1  UNL1        0.1154
     16 C         139.3189  144.8175  164.3020 C.3     1  UNL1        0.0296
     17 C         138.5091  143.6349  164.7441 C.3     1  UNL1        0.0050
     18 C         137.8878  143.5510  163.3814 C.3     1  UNL1        0.0296
     19 O         142.3285  144.3381  160.7204 O.3     1  UNL1       -0.4517
     20 C         142.6948  144.0947  162.1545 C.ar    1  UNL1        0.2312
     21 N         143.6702  145.0021  162.8438 N.ar    1  UNL1       -0.1892
     22 C         144.0365  144.7587  164.2779 C.ar    1  UNL1        0.2029
     23 N         143.4274  143.6079  165.0226 N.ar    1  UNL1       -0.2045
     24 C         142.4520  142.7005  164.3333 C.ar    1  UNL1        0.1732
     25 C         142.0857  142.9439  162.8992 C.ar    1  UNL1        0.1099
     26 C         141.1025  141.8889  162.4864 C.ar    1  UNL1        0.1283
     27 N         140.8611  140.9936  163.6654 N.ar    1  UNL1       -0.1606
     28 N         141.6952  141.4951  164.8068 N.ar    1  UNL1       -0.1936
     29 C         141.7609  140.8964  166.1806 C.ar    1  UNL1        0.1759
     30 N         140.8755  141.4224  167.2711 N.ar    1  UNL1       -0.2242
     31 C         140.9412  140.8237  168.6449 C.ar    1  UNL1        0.1006
     32 C         141.8923  139.6989  168.9281 C.ar    1  UNL1        0.0217
     33 C         142.7777  139.1729  167.8376 C.ar    1  UNL1        0.0161
     34 C         142.7120  139.7716  166.4638 C.ar    1  UNL1        0.0935
     35 CL        143.5974  139.2455  165.3733 Cl      1  UNL1       -0.0790
@<TRIPOS>BOND
     1     6     7    1
     2     7     8   ar
     3     8     9   ar
     4     9    10   ar
     5    10     2    1
     6     2     3   am
     7     3     4    2
     8     3     1    1
     9     1    13    1
    10    13    14    1
    11    14    15    1
    12    15    16    1
    13    16    17    1
    14    17    18    1
    15     1    19    1
    16    19    20    1
    17    20    21   ar
    18    21    22   ar
    19    22    23   ar
    20    23    24   ar
    21    24    25   ar
    22    25    26   ar
    23    26    27   ar
    24    27    28   ar
    25    28    29    1
    26    29    30   ar
    27    30    31   ar
    28    31    32   ar
    29    32    33   ar
    30    33    34   ar
    31    34    35    1
    32    10    11   ar
    33    11    12   ar
    34    12     7   ar
    35    18    15    1
    36    25    20   ar
    37    34    29   ar
    38    28    24   ar
    39     2     5    1
@<TRIPOS>MOLECULE
*****
 35 39 0 0 0
SMALL
GASTEIGER

@<TRIPOS>ATOM
      1 C         139.4223  137.9507  161.6383 C.3     1  UNL1        0.2722
      2 N         141.6715  138.4517  160.4381 N.am    1  UNL1       -0.2651
      3 C         140.1735  138.3780  160.4123 C.2     1  UNL1        0.2701
      4 O         139.4267  138.7316  159.1604 O.2     1  UNL1       -0.2707
      5 H         142.1616  138.2196  161.2598 H       1  UNL1        0.1564
      6 C         144.6762  140.1609  155.5341 C.3     1  UNL1        0.0538
      7 C         143.9250  139.7336  156.7601 C.ar    1  UNL1        0.0786
      8 C         143.6338  140.7271  157.8455 C.ar    1  UNL1        0.1150
      9 N         142.8826  140.2998  159.0715 N.ar    1  UNL1       -0.2262
     10 C         142.4226  138.8790  159.2121 C.ar    1  UNL1        0.1536
     11 C         142.7138  137.8855  158.1267 C.ar    1  UNL1        0.1328
     12 N         143.4650  138.3128  156.9007 N.ar    1  UNL1       -0.2436
     13 C         137.9592  138.2554  161.7657 C.3     1  UNL1        0.1950
     14 O         137.4695  139.6639  161.6034 O.3     1  UNL1       -0.3519
     15 C         138.0100  140.7520  162.4833 C.3     1  UNL1        0.1154
     16 C         137.4620  141.5736  163.6122 C.3     1  UNL1        0.0296
     17 C         138.7745  142.2906  163.7276 C.3     1  UNL1        0.0050
     18 C         139.3225  141.4689  162.5986 C.3     1  UNL1        0.0296
     19 O         140.1344  137.2186  162.7370 O.3     1  UNL1       -0.4517
     20 C         140.8729  137.9857  163.7935 C.ar    1  UNL1        0.2312
     21 N         142.3510  138.2061  163.6650 N.ar    1  UNL1       -0.1892
     22 C         143.0895  138.9733  164.7215 C.ar    1  UNL1        0.2029
     23 N         142.3499  139.5200  165.9064 N.ar    1  UNL1       -0.2045
     24 C         140.8717  139.2995  166.0349 C.ar    1  UNL1        0.1732
     25 C         140.1333  138.5324  164.9784 C.ar    1  UNL1        0.1099
     26 C         138.6872  138.4745  165.3731 C.ar    1  UNL1        0.1283
     27 N         138.5320  139.2059  166.6734 N.ar    1  UNL1       -0.1606
     28 N         139.8821  139.7157  167.0825 N.ar    1  UNL1       -0.1936
     29 C         140.1888  140.5035  168.3215 C.ar    1  UNL1        0.1759
     30 N         140.2389  139.8165  169.6540 N.ar    1  UNL1       -0.2242
     31 C         140.5455  140.6043  170.8930 C.ar    1  UNL1        0.1006
     32 C         140.8022  142.0792  170.7997 C.ar    1  UNL1        0.0217
     33 C         140.7522  142.7662  169.4673 C.ar    1  UNL1        0.0161
     34 C         140.4455  141.9785  168.2282 C.ar    1  UNL1        0.0935
     35 CL        140.3955  142.6656  166.8958 Cl      1  UNL1       -0.0790
@<TRIPOS>BOND
     1     6     7    1
     2     7     8   ar
     3     8     9   ar
     4     9    10   ar
     5    10     2    1
     6     2     3   am
     7     3     4    2
     8     3     1    1
     9     1    13    1
    10    13    14    1
    11    14    15    1
    12    15    16    1
    13    16    17    1
    14    17    18    1
    15     1    19    1
    16    19    20    1
    17    20    21   ar
    18    21    22   ar
    19    22    23   ar
    20    23    24   ar
    21    24    25   ar
    22    25    26   ar
    23    26    27   ar
    24    27    28   ar
    25    28    29    1
    26    29    30   ar
    27    30    31   ar
    28    31    32   ar
    29    32    33   ar
    30    33    34   ar
    31    34    35    1
    32    10    11   ar
    33    11    12   ar
    34    12     7   ar
    35    18    15    1
    36    25    20   ar
    37    34    29   ar
    38    28    24   ar
    39     2     5    1
@<TRIPOS>MOLECULE
*****
 35 39 0 0 0
SMALL
GASTEIGER

@<TRIPOS>ATOM
      1 C         141.0530  144.7793  159.7090 C.3     1  UNL1        0.2722
      2 N         139.8769  145.7652  157.6126 N.am    1  UNL1       -0.2651
      3 C         141.1101  145.5904  158.4485 C.2     1  UNL1        0.2701
      4 O         142.4003  146.2267  158.0239 O.2     1  UNL1       -0.2707
      5 H         139.0301  145.3476  157.8913 H       1  UNL1        0.1564
      6 C         140.1051  149.0095  152.5706 C.3     1  UNL1        0.0538
      7 C         140.0481  148.1984  153.8311 C.ar    1  UNL1        0.0786
      8 C         139.2170  148.6680  154.9882 C.ar    1  UNL1        0.1150
      9 N         139.1599  147.8570  156.2486 N.ar    1  UNL1       -0.2262
     10 C         139.9340  146.5763  156.3521 C.ar    1  UNL1        0.1536
     11 C         140.7650  146.1066  155.1951 C.ar    1  UNL1        0.1328
     12 N         140.8221  146.9177  153.9345 N.ar    1  UNL1       -0.2436
     13 C         140.6794  145.4340  161.0058 C.3     1  UNL1        0.1950
     14 O         139.2453  145.4650  161.4445 O.3     1  UNL1       -0.3519
     15 C         138.8417  144.8168  162.7356 C.3     1  UNL1        0.1154
     16 C         139.4096  144.7725  164.1231 C.3     1  UNL1        0.0296
     17 C         138.2709  143.9000  164.5615 C.3     1  UNL1        0.0050
     18 C         137.7029  143.9443  163.1739 C.3     1  UNL1        0.0296
     19 O         141.3696  143.3136  159.6727 O.3     1  UNL1       -0.4517
     20 C         140.4001  142.3224  160.2454 C.ar    1  UNL1        0.2312
     21 N         139.2489  141.8346  159.4167 N.ar    1  UNL1       -0.1892
     22 C         138.2795  140.8435  159.9894 C.ar    1  UNL1        0.2029
     23 N         138.4613  140.3404  161.3908 N.ar    1  UNL1       -0.2045
     24 C         139.6125  140.8282  162.2194 C.ar    1  UNL1        0.1732
     25 C         140.5819  141.8193  161.6467 C.ar    1  UNL1        0.1099
     26 C         141.6135  142.1172  162.6942 C.ar    1  UNL1        0.1283
     27 N         141.2815  141.3103  163.9143 N.ar    1  UNL1       -0.1606
     28 N         140.0449  140.5136  163.6209 N.ar    1  UNL1       -0.1936
     29 C         139.3607  139.5684  164.5634 C.ar    1  UNL1        0.1759
     30 N         138.6184  140.1014  165.7528 N.ar    1  UNL1       -0.2242
     31 C         137.9343  139.1561  166.6953 C.ar    1  UNL1        0.1006
     32 C         137.9924  137.6777  166.4484 C.ar    1  UNL1        0.0217
     33 C         138.7347  137.1447  165.2590 C.ar    1  UNL1        0.0161
     34 C         139.4188  138.0900  164.3164 C.ar    1  UNL1        0.0935
     35 CL        140.1611  137.5568  163.1270 Cl      1  UNL1       -0.0790
@<TRIPOS>BOND
     1     6     7    1
     2     7     8   ar
     3     8     9   ar
     4     9    10   ar
     5    10     2    1
     6     2     3   am
     7     3     4    2
     8     3     1    1
     9     1    13    1
    10    13    14    1
    11    14    15    1
    12    15    16    1
    13    16    17    1
    14    17    18    1
    15     1    19    1
    16    19    20    1
    17    20    21   ar
    18    21    22   ar
    19    22    23   ar
    20    23    24   ar
    21    24    25   ar
    22    25    26   ar
    23    26    27   ar
    24    27    28   ar
    25    28    29    1
    26    29    30   ar
    27    30    31   ar
    28    31    32   ar
    29    32    33   ar
    30    33    34   ar
    31    34    35    1
    32    10    11   ar
    33    11    12   ar
    34    12     7   ar
    35    18    15    1
    36    25    20   ar
    37    34    29   ar
    38    28    24   ar
    39     2     5    1
@<TRIPOS>MOLECULE
*****
 35 39 0 0 0
SMALL
GASTEIGER

@<TRIPOS>ATOM
      1 C         138.2298  139.7252  161.7982 C.3     1  UNL1        0.2722
      2 N         138.2278  141.9803  160.5079 N.am    1  UNL1       -0.2651
      3 C         138.7510  140.5858  160.6856 C.2     1  UNL1        0.2701
      4 O         139.7955  140.0519  159.7508 O.2     1  UNL1       -0.2707
      5 H         137.5422  142.3307  161.1215 H       1  UNL1        0.1564
      6 C         140.3126  145.4226  156.0578 C.3     1  UNL1        0.0538
      7 C         139.7914  144.5620  157.1703 C.ar    1  UNL1        0.0786
      8 C         140.1918  144.8449  158.5880 C.ar    1  UNL1        0.1150
      9 N         139.6706  143.9843  159.7005 N.ar    1  UNL1       -0.2262
     10 C         138.7490  142.8408  159.3954 C.ar    1  UNL1        0.1536
     11 C         138.3485  142.5579  157.9778 C.ar    1  UNL1        0.1328
     12 N         138.8698  143.4185  156.8652 N.ar    1  UNL1       -0.2436
     13 C         138.3341  138.2319  161.7032 C.3     1  UNL1        0.1950
     14 O         139.6758  137.5668  161.7895 O.3     1  UNL1       -0.3519
     15 C         140.5748  137.8404  162.9587 C.3     1  UNL1        0.1154
     16 C         141.4911  138.9606  163.3527 C.3     1  UNL1        0.0296
     17 C         141.8460  138.2273  164.6123 C.3     1  UNL1        0.0050
     18 C         140.9296  137.1071  164.2182 C.3     1  UNL1        0.0296
     19 O         137.6042  140.3580  163.0057 O.3     1  UNL1       -0.4517
     20 C         138.4585  141.0973  163.9926 C.ar    1  UNL1        0.2312
     21 N         139.0245  142.4400  163.6368 N.ar    1  UNL1       -0.1892
     22 C         139.8787  143.1792  164.6236 C.ar    1  UNL1        0.2029
     23 N         140.1670  142.5756  165.9662 N.ar    1  UNL1       -0.2045
     24 C         139.6010  141.2329  166.3220 C.ar    1  UNL1        0.1732
     25 C         138.7467  140.4937  165.3352 C.ar    1  UNL1        0.1099
     26 C         138.3302  139.1965  165.9628 C.ar    1  UNL1        0.1283
     27 N         138.9271  139.1340  167.3375 N.ar    1  UNL1       -0.1606
     28 N         139.7124  140.3926  167.5595 N.ar    1  UNL1       -0.1936
     29 C         140.4753  140.7483  168.8010 C.ar    1  UNL1        0.1759
     30 N         139.8361  141.6026  169.8552 N.ar    1  UNL1       -0.2242
     31 C         140.5990  141.9584  171.0968 C.ar    1  UNL1        0.1006
     32 C         142.0013  141.4599  171.2841 C.ar    1  UNL1        0.0217
     33 C         142.6406  140.6056  170.2298 C.ar    1  UNL1        0.0161
     34 C         141.8776  140.2498  168.9883 C.ar    1  UNL1        0.0935
     35 CL        142.5170  139.3956  167.9341 Cl      1  UNL1       -0.0790
@<TRIPOS>BOND
     1     6     7    1
     2     7     8   ar
     3     8     9   ar
     4     9    10   ar
     5    10     2    1
     6     2     3   am
     7     3     4    2
     8     3     1    1
     9     1    13    1
    10    13    14    1
    11    14    15    1
    12    15    16    1
    13    16    17    1
    14    17    18    1
    15     1    19    1
    16    19    20    1
    17    20    21   ar
    18    21    22   ar
    19    22    23   ar
    20    23    24   ar
    21    24    25   ar
    22    25    26   ar
    23    26    27   ar
    24    27    28   ar
    25    28    29    1
    26    29    30   ar
    27    30    31   ar
    28    31    32   ar
    29    32    33   ar
    30    33    34   ar
    31    34    35    1
    32    10    11   ar
    33    11    12   ar
    34    12     7   ar
    35    18    15    1
    36    25    20   ar
    37    34    29   ar
    38    28    24   ar
    39     2     5    1
@<TRIPOS>MOLECULE
*****
 35 39 0 0 0
SMALL
GASTEIGER

@<TRIPOS>ATOM
      1 C         141.0669  144.8248  159.7933 C.3     1  UNL1        0.2722
      2 N         139.9319  145.7269  157.6374 N.am    1  UNL1       -0.2651
      3 C         141.1489  145.5846  158.5025 C.2     1  UNL1        0.2701
      4 O         142.4480  146.2020  158.0769 O.2     1  UNL1       -0.2707
      5 H         139.0792  145.3216  157.9168 H       1  UNL1        0.1564
      6 C         140.2597  148.7659  152.4744 C.3     1  UNL1        0.0538
      7 C         140.1778  148.0061  153.7651 C.ar    1  UNL1        0.0786
      8 C         139.3072  148.5099  154.8780 C.ar    1  UNL1        0.1150
      9 N         139.2252  147.7501  156.1687 N.ar    1  UNL1       -0.2262
     10 C         140.0138  146.4866  156.3467 C.ar    1  UNL1        0.1536
     11 C         140.8844  145.9829  155.2339 C.ar    1  UNL1        0.1328
     12 N         140.9663  146.7426  153.9431 N.ar    1  UNL1       -0.2436
     13 C         140.6407  145.5245  161.0497 C.3     1  UNL1        0.1950
     14 O         139.2021  145.4951  161.4735 O.3     1  UNL1       -0.3519
     15 C         138.8149  144.8442  162.7684 C.3     1  UNL1        0.1154
     16 C         139.4251  144.7570  164.1358 C.3     1  UNL1        0.0296
     17 C         138.2672  143.9237  164.5994 C.3     1  UNL1        0.0050
     18 C         137.6570  144.0109  163.2319 C.3     1  UNL1        0.0296
     19 O         141.4112  143.3652  159.8276 O.3     1  UNL1       -0.4517
     20 C         141.0157  142.5289  161.0084 C.ar    1  UNL1        0.2312
     21 N         139.7199  141.7735  160.9922 N.ar    1  UNL1       -0.1892
     22 C         139.3245  140.9373  162.1730 C.ar    1  UNL1        0.2029
     23 N         140.2248  140.8564  163.3700 N.ar    1  UNL1       -0.2045
     24 C         141.5206  141.6118  163.3862 C.ar    1  UNL1        0.1732
     25 C         141.9160  142.4480  162.2054 C.ar    1  UNL1        0.1099
     26 C         143.2442  143.0769  162.5066 C.ar    1  UNL1        0.1283
     27 N         143.6696  142.6292  163.8736 N.ar    1  UNL1       -0.1606
     28 N         142.6043  141.7237  164.4172 N.ar    1  UNL1       -0.1936
     29 C         142.6201  141.0487  165.7566 C.ar    1  UNL1        0.1759
     30 N         142.2549  141.8206  166.9898 N.ar    1  UNL1       -0.2242
     31 C         142.2706  141.1455  168.3293 C.ar    1  UNL1        0.1006
     32 C         142.6515  139.6986  168.4355 C.ar    1  UNL1        0.0217
     33 C         143.0168  138.9268  167.2023 C.ar    1  UNL1        0.0161
     34 C         143.0010  139.6018  165.8629 C.ar    1  UNL1        0.0935
     35 CL        143.3663  138.8299  164.6297 Cl      1  UNL1       -0.0790
@<TRIPOS>BOND
     1     6     7    1
     2     7     8   ar
     3     8     9   ar
     4     9    10   ar
     5    10     2    1
     6     2     3   am
     7     3     4    2
     8     3     1    1
     9     1    13    1
    10    13    14    1
    11    14    15    1
    12    15    16    1
    13    16    17    1
    14    17    18    1
    15     1    19    1
    16    19    20    1
    17    20    21   ar
    18    21    22   ar
    19    22    23   ar
    20    23    24   ar
    21    24    25   ar
    22    25    26   ar
    23    26    27   ar
    24    27    28   ar
    25    28    29    1
    26    29    30   ar
    27    30    31   ar
    28    31    32   ar
    29    32    33   ar
    30    33    34   ar
    31    34    35    1
    32    10    11   ar
    33    11    12   ar
    34    12     7   ar
    35    18    15    1
    36    25    20   ar
    37    34    29   ar
    38    28    24   ar
    39     2     5    1
@<TRIPOS>MOLECULE
*****
 35 39 0 0 0
SMALL
GASTEIGER

@<TRIPOS>ATOM
      1 C         143.6396  139.4261  161.6760 C.3     1  UNL1        0.2722
      2 N         143.6602  141.8426  160.7219 N.am    1  UNL1       -0.2651
      3 C         143.1321  140.4390  160.6927 C.2     1  UNL1        0.2701
      4 O         142.0967  140.0481  159.6803 O.2     1  UNL1       -0.2707
      5 H         144.3398  142.0992  161.3864 H       1  UNL1        0.1564
      6 C         141.6307  145.8939  156.7890 C.3     1  UNL1        0.0538
      7 C         142.1380  144.8811  157.7722 C.ar    1  UNL1        0.0786
      8 C         143.0063  143.7509  157.3043 C.ar    1  UNL1        0.1150
      9 N         143.5137  142.7381  158.2875 N.ar    1  UNL1       -0.2262
     10 C         143.1528  142.8554  159.7387 C.ar    1  UNL1        0.1536
     11 C         142.2846  143.9855  160.2067 C.ar    1  UNL1        0.1328
     12 N         141.7772  144.9983  159.2234 N.ar    1  UNL1       -0.2436
     13 C         143.4000  137.9646  161.4384 C.3     1  UNL1        0.1950
     14 O         142.0318  137.3856  161.6447 O.3     1  UNL1       -0.3519
     15 C         141.2789  137.6726  162.9100 C.3     1  UNL1        0.1154
     16 C         141.0717  136.9502  164.2080 C.3     1  UNL1        0.0296
     17 C         140.2141  138.0786  164.6992 C.3     1  UNL1        0.0050
     18 C         140.4213  138.8010  163.4011 C.3     1  UNL1        0.0296
     19 O         144.3865  139.8749  162.8970 O.3     1  UNL1       -0.4517
     20 C         143.6820  140.6671  163.9582 C.ar    1  UNL1        0.2312
     21 N         143.2237  142.0659  163.6700 N.ar    1  UNL1       -0.1892
     22 C         142.5192  142.8580  164.7312 C.ar    1  UNL1        0.2029
     23 N         142.2731  142.2512  166.0808 N.ar    1  UNL1       -0.2045
     24 C         142.7314  140.8523  166.3690 C.ar    1  UNL1        0.1732
     25 C         143.4359  140.0603  165.3078 C.ar    1  UNL1        0.1099
     26 C         143.7701  138.7142  165.8791 C.ar    1  UNL1        0.1283
     27 N         143.2722  138.6743  167.2935 N.ar    1  UNL1       -0.1606
     28 N         142.6302  139.9958  167.5962 N.ar    1  UNL1       -0.1936
     29 C         141.9981  140.3913  168.8978 C.ar    1  UNL1        0.1759
     30 N         140.7730  139.6757  169.3846 N.ar    1  UNL1       -0.2242
     31 C         140.1409  140.0712  170.6861 C.ar    1  UNL1        0.1006
     32 C         140.7338  141.1823  171.5009 C.ar    1  UNL1        0.0217
     33 C         141.9589  141.8979  171.0140 C.ar    1  UNL1        0.0161
     34 C         142.5910  141.5024  169.7125 C.ar    1  UNL1        0.0935
     35 CL        143.8161  142.2181  169.2257 Cl      1  UNL1       -0.0790
@<TRIPOS>BOND
     1     6     7    1
     2     7     8   ar
     3     8     9   ar
     4     9    10   ar
     5    10     2    1
     6     2     3   am
     7     3     4    2
     8     3     1    1
     9     1    13    1
    10    13    14    1
    11    14    15    1
    12    15    16    1
    13    16    17    1
    14    17    18    1
    15     1    19    1
    16    19    20    1
    17    20    21   ar
    18    21    22   ar
    19    22    23   ar
    20    23    24   ar
    21    24    25   ar
    22    25    26   ar
    23    26    27   ar
    24    27    28   ar
    25    28    29    1
    26    29    30   ar
    27    30    31   ar
    28    31    32   ar
    29    32    33   ar
    30    33    34   ar
    31    34    35    1
    32    10    11   ar
    33    11    12   ar
    34    12     7   ar
    35    18    15    1
    36    25    20   ar
    37    34    29   ar
    38    28    24   ar
    39     2     5    1
@<TRIPOS>MOLECULE
*****
 35 39 0 0 0
SMALL
GASTEIGER

@<TRIPOS>ATOM
      1 C         143.6520  140.0431  160.1891 C.3     1  UNL1        0.2722
      2 N         143.2244  138.9958  157.8502 N.am    1  UNL1       -0.2651
      3 C         143.2692  138.8646  159.3438 C.2     1  UNL1        0.2701
      4 O         142.9313  137.5548  159.9920 O.2     1  UNL1       -0.2707
      5 H         143.4462  139.8555  157.4247 H       1  UNL1        0.1564
      6 C         141.6931  134.2819  154.4689 C.3     1  UNL1        0.0538
      7 C         142.0759  135.4604  155.3142 C.ar    1  UNL1        0.0786
      8 C         143.5199  135.8371  155.4659 C.ar    1  UNL1        0.1150
      9 N         143.9027  137.0156  156.3113 N.ar    1  UNL1       -0.2262
     10 C         142.8416  137.8174  157.0049 C.ar    1  UNL1        0.1536
     11 C         141.3976  137.4407  156.8532 C.ar    1  UNL1        0.1328
     12 N         141.0148  136.2621  156.0078 N.ar    1  UNL1       -0.2436
     13 C         143.0094  141.3774  159.9508 C.3     1  UNL1        0.1950
     14 O         141.5852  141.6079  160.3611 O.3     1  UNL1       -0.3519
     15 C         141.2729  142.0952  161.7450 C.3     1  UNL1        0.1154
     16 C         140.4616  141.5755  162.8946 C.3     1  UNL1        0.0296
     17 C         140.8312  142.7844  163.7021 C.3     1  UNL1        0.0050
     18 C         141.6426  143.3041  162.5524 C.3     1  UNL1        0.0296
     19 O         144.6775  139.8874  161.2727 O.3     1  UNL1       -0.4517
     20 C         144.4247  140.4663  162.6333 C.ar    1  UNL1        0.2312
     21 N         145.0116  141.7962  163.0033 N.ar    1  UNL1       -0.1892
     22 C         144.7588  142.3750  164.3638 C.ar    1  UNL1        0.2029
     23 N         143.9192  141.6240  165.3543 N.ar    1  UNL1       -0.2045
     24 C         143.3324  140.2941  164.9843 C.ar    1  UNL1        0.1732
     25 C         143.5852  139.7152  163.6238 C.ar    1  UNL1        0.1099
     26 C         142.8800  138.3936  163.5440 C.ar    1  UNL1        0.1283
     27 N         142.1915  138.1558  164.8552 N.ar    1  UNL1       -0.1606
     28 N         142.4711  139.3303  165.7453 N.ar    1  UNL1       -0.1936
     29 C         141.9763  139.5096  167.1500 C.ar    1  UNL1        0.1759
     30 N         142.8686  139.1742  168.3081 N.ar    1  UNL1       -0.2242
     31 C         142.3737  139.3535  169.7127 C.ar    1  UNL1        0.1006
     32 C         140.9865  139.8682  169.9592 C.ar    1  UNL1        0.0217
     33 C         140.0942  140.2035  168.8011 C.ar    1  UNL1        0.0161
     34 C         140.5891  140.0242  167.3965 C.ar    1  UNL1        0.0935
     35 CL        139.6967  140.3596  166.2384 Cl      1  UNL1       -0.0790
@<TRIPOS>BOND
     1     6     7    1
     2     7     8   ar
     3     8     9   ar
     4     9    10   ar
     5    10     2    1
     6     2     3   am
     7     3     4    2
     8     3     1    1
     9     1    13    1
    10    13    14    1
    11    14    15    1
    12    15    16    1
    13    16    17    1
    14    17    18    1
    15     1    19    1
    16    19    20    1
    17    20    21   ar
    18    21    22   ar
    19    22    23   ar
    20    23    24   ar
    21    24    25   ar
    22    25    26   ar
    23    26    27   ar
    24    27    28   ar
    25    28    29    1
    26    29    30   ar
    27    30    31   ar
    28    31    32   ar
    29    32    33   ar
    30    33    34   ar
    31    34    35    1
    32    10    11   ar
    33    11    12   ar
    34    12     7   ar
    35    18    15    1
    36    25    20   ar
    37    34    29   ar
    38    28    24   ar
    39     2     5    1
@<TRIPOS>MOLECULE
*****
 35 39 0 0 0
SMALL
GASTEIGER

@<TRIPOS>ATOM
      1 C         143.3026  141.8291  160.5272 C.3     1  UNL1        0.2722
      2 N         142.8646  143.9569  159.1021 N.am    1  UNL1       -0.2651
      3 C         142.4563  142.5831  159.5447 C.2     1  UNL1        0.2701
      4 O         141.2016  141.9631  159.0047 O.2     1  UNL1       -0.2707
      5 H         143.6881  144.3637  159.4565 H       1  UNL1        0.1564
      6 C         139.4794  146.9726  155.1720 C.3     1  UNL1        0.0538
      7 C         140.3257  146.2187  156.1545 C.ar    1  UNL1        0.0786
      8 C         141.5093  145.4312  155.6759 C.ar    1  UNL1        0.1150
      9 N         142.3556  144.6773  156.6584 N.ar    1  UNL1       -0.2262
     10 C         142.0183  144.7108  158.1196 C.ar    1  UNL1        0.1536
     11 C         140.8348  145.4982  158.5983 C.ar    1  UNL1        0.1328
     12 N         139.9885  146.2522  157.6157 N.ar    1  UNL1       -0.2436
     13 C         144.6735  142.3289  160.8749 C.3     1  UNL1        0.1950
     14 O         144.8374  143.6518  161.5627 O.3     1  UNL1       -0.3519
     15 C         143.9249  144.0280  162.6923 C.3     1  UNL1        0.1154
     16 C         142.6078  144.7373  162.8006 C.3     1  UNL1        0.0296
     17 C         142.6346  144.5599  164.2898 C.3     1  UNL1        0.0050
     18 C         143.9519  143.8506  164.1815 C.3     1  UNL1        0.0296
     19 O         142.7780  140.5754  161.1621 O.3     1  UNL1       -0.4517
     20 C         142.8702  140.3920  162.6481 C.ar    1  UNL1        0.2312
     21 N         144.0422  139.6694  163.2432 N.ar    1  UNL1       -0.1892
     22 C         144.1344  139.4859  164.7291 C.ar    1  UNL1        0.2029
     23 N         143.0546  140.0251  165.6198 N.ar    1  UNL1       -0.2045
     24 C         141.8827  140.7478  165.0246 C.ar    1  UNL1        0.1732
     25 C         141.7905  140.9312  163.5387 C.ar    1  UNL1        0.1099
     26 C         140.5255  141.6808  163.2418 C.ar    1  UNL1        0.1283
     27 N         139.8360  141.9606  164.5442 N.ar    1  UNL1       -0.1606
     28 N         140.6747  141.3839  165.6460 N.ar    1  UNL1       -0.1936
     29 C         140.3607  141.4346  167.1119 C.ar    1  UNL1        0.1759
     30 N         140.8517  142.5812  167.9449 N.ar    1  UNL1       -0.2242
     31 C         140.5377  142.6319  169.4108 C.ar    1  UNL1        0.1006
     32 C         139.7326  141.5359  170.0437 C.ar    1  UNL1        0.0217
     33 C         139.2415  140.3893  169.2106 C.ar    1  UNL1        0.0161
     34 C         139.5555  140.3386  167.7447 C.ar    1  UNL1        0.0935
     35 CL        139.0644  139.1919  166.9117 Cl      1  UNL1       -0.0790
@<TRIPOS>BOND
     1     6     7    1
     2     7     8   ar
     3     8     9   ar
     4     9    10   ar
     5    10     2    1
     6     2     3   am
     7     3     4    2
     8     3     1    1
     9     1    13    1
    10    13    14    1
    11    14    15    1
    12    15    16    1
    13    16    17    1
    14    17    18    1
    15     1    19    1
    16    19    20    1
    17    20    21   ar
    18    21    22   ar
    19    22    23   ar
    20    23    24   ar
    21    24    25   ar
    22    25    26   ar
    23    26    27   ar
    24    27    28   ar
    25    28    29    1
    26    29    30   ar
    27    30    31   ar
    28    31    32   ar
    29    32    33   ar
    30    33    34   ar
    31    34    35    1
    32    10    11   ar
    33    11    12   ar
    34    12     7   ar
    35    18    15    1
    36    25    20   ar
    37    34    29   ar
    38    28    24   ar
    39     2     5    1
@<TRIPOS>MOLECULE
*****
 35 39 0 0 0
SMALL
GASTEIGER

@<TRIPOS>ATOM
      1 C         139.3435  141.5830  161.1211 C.3     1  UNL1        0.2722
      2 N         139.1030  143.4049  159.2845 N.am    1  UNL1       -0.2651
      3 C         139.8595  142.2569  159.8842 C.2     1  UNL1        0.2701
      4 O         141.1320  141.7827  159.2472 O.2     1  UNL1       -0.2707
      5 H         138.2678  143.7161  159.7026 H       1  UNL1        0.1564
      6 C         141.1669  146.1003  154.3373 C.3     1  UNL1        0.0538
      7 C         140.6509  145.4265  155.5741 C.ar    1  UNL1        0.0786
      8 C         141.0970  145.8977  156.9266 C.ar    1  UNL1        0.1150
      9 N         140.5810  145.2238  158.1633 N.ar    1  UNL1       -0.2262
     10 C         139.6190  144.0788  158.0477 C.ar    1  UNL1        0.1536
     11 C         139.1730  143.6075  156.6954 C.ar    1  UNL1        0.1328
     12 N         139.6889  144.2814  155.4585 N.ar    1  UNL1       -0.2436
     13 C         137.9398  141.8383  161.5841 C.3     1  UNL1        0.1950
     14 O         137.5157  143.2263  161.9629 O.3     1  UNL1       -0.3519
     15 C         138.1119  143.8898  163.1689 C.3     1  UNL1        0.1154
     16 C         139.2400  144.8505  163.4019 C.3     1  UNL1        0.0296
     17 C         138.9551  144.8281  164.8744 C.3     1  UNL1        0.0050
     18 C         137.8269  143.8674  164.6414 C.3     1  UNL1        0.0296
     19 O         140.2312  140.6539  161.8949 O.3     1  UNL1       -0.4517
     20 C         139.9173  140.3357  163.3268 C.ar    1  UNL1        0.2312
     21 N         138.9369  139.2493  163.6560 N.ar    1  UNL1       -0.1892
     22 C         138.6230  138.9311  165.0879 C.ar    1  UNL1        0.2029
     23 N         139.2896  139.6992  166.1904 N.ar    1  UNL1       -0.2045
     24 C         140.2701  140.7856  165.8611 C.ar    1  UNL1        0.1732
     25 C         140.5840  141.1038  164.4293 C.ar    1  UNL1        0.1099
     26 C         141.5855  142.2204  164.4113 C.ar    1  UNL1        0.1283
     27 N         141.8905  142.5923  165.8321 N.ar    1  UNL1       -0.1606
     28 N         141.0776  141.7055  166.7281 N.ar    1  UNL1       -0.1936
     29 C         141.0729  141.7337  168.2278 C.ar    1  UNL1        0.1759
     30 N         140.2479  142.7528  168.9563 N.ar    1  UNL1       -0.2242
     31 C         140.2433  142.7810  170.4560 C.ar    1  UNL1        0.1006
     32 C         141.0637  141.7900  171.2274 C.ar    1  UNL1        0.0217
     33 C         141.8887  140.7709  170.4989 C.ar    1  UNL1        0.0161
     34 C         141.8933  140.7427  168.9992 C.ar    1  UNL1        0.0935
     35 CL        142.7184  139.7236  168.2708 Cl      1  UNL1       -0.0790
@<TRIPOS>BOND
     1     6     7    1
     2     7     8   ar
     3     8     9   ar
     4     9    10   ar
     5    10     2    1
     6     2     3   am
     7     3     4    2
     8     3     1    1
     9     1    13    1
    10    13    14    1
    11    14    15    1
    12    15    16    1
    13    16    17    1
    14    17    18    1
    15     1    19    1
    16    19    20    1
    17    20    21   ar
    18    21    22   ar
    19    22    23   ar
    20    23    24   ar
    21    24    25   ar
    22    25    26   ar
    23    26    27   ar
    24    27    28   ar
    25    28    29    1
    26    29    30   ar
    27    30    31   ar
    28    31    32   ar
    29    32    33   ar
    30    33    34   ar
    31    34    35    1
    32    10    11   ar
    33    11    12   ar
    34    12     7   ar
    35    18    15    1
    36    25    20   ar
    37    34    29   ar
    38    28    24   ar
    39     2     5    1
