@<TRIPOS>MOLECULE
*****
 26 28 0 0 0
SMALL
GASTEIGER

@<TRIPOS>ATOM
      1 C         142.1410  141.8670  166.2440 C.ar    1  UNL1        0.0252
      2 C         142.4271  142.1295  167.6929 C.ar    1  UNL1       -0.0009
      3 C         142.6943  140.9842  168.6240 C.ar    1  UNL1        0.0210
      4 C         142.6753  139.5766  168.1063 C.ar    1  UNL1        0.1397
      5 F         142.9424  138.4313  169.0375 F       1  UNL1       -0.2044
      6 C         142.3892  139.3141  166.6574 C.ar    1  UNL1        0.0587
      7 C         142.1221  140.4593  165.7263 C.ar    1  UNL1        0.1401
      8 F         141.8359  140.1969  164.2774 F       1  UNL1       -0.2044
      9 C         140.4727  142.6950  165.7442 C.3     1  UNL1        0.0291
     10 C         141.8739  143.0123  165.3128 C.3     1  UNL1        0.1080
     11 C         143.3678  142.9318  165.2048 C.3     1  UNL1        0.0388
     12 C         144.1080  143.8863  164.3154 C.3     1  UNL1        0.0671
     13 S         143.3541  144.9214  163.5341 S.3     1  UNL1       -0.0807
     14 C         141.8603  145.0019  163.6421 C.2     1  UNL1        0.1482
     15 N         141.1064  146.0369  162.8607 N.pl3   1  UNL1       -0.3380
     16 N         141.1201  144.0473  164.5314 N.2     1  UNL1       -0.2509
     17 H         141.5922  146.6634  162.2770 H       1  UNL1        0.1442
     18 H         140.1259  146.0897  162.9316 H       1  UNL1        0.1442
     19 C         142.9804  141.2467  170.0729 C.3     1  UNL1        0.0985
     20 N         141.8505  141.3456  171.0546 N.3     1  UNL1       -0.2847
     21 H         142.0044  142.1963  171.5959 H       1  UNL1        0.1244
     22 C         140.4336  141.3944  170.5648 C.3     1  UNL1        0.1226
     23 C         139.0741  140.9289  170.1345 C.3     1  UNL1        0.0314
     24 C         140.1070  139.9305  170.5660 C.3     1  UNL1        0.0314
     25 C         140.2681  142.8755  170.3935 C.1     1  UNL1        0.0860
     26 N         140.1027  144.3564  170.2222 N.1     1  UNL1       -0.1946
@<TRIPOS>BOND
     1    10     9    1
     2    10     1    1
     3     1     2   ar
     4     2     3   ar
     5     3    19    1
     6    19    20    1
     7    20    22    1
     8    22    25    1
     9    25    26    3
    10    22    23    1
    11    23    24    1
    12     3     4   ar
    13     4     5    1
    14     4     6   ar
    15     6     7   ar
    16     7     8    1
    17    10    11    1
    18    11    12    1
    19    12    13    1
    20    13    14    1
    21    14    15    1
    22    14    16    2
    23    16    10    1
    24     7     1   ar
    25    24    22    1
    26    20    21    1
    27    15    17    1
    28    15    18    1
@<TRIPOS>MOLECULE
*****
 26 28 0 0 0
SMALL
GASTEIGER

@<TRIPOS>ATOM
      1 C         138.7573  139.3063  165.3588 C.ar    1  UNL1        0.0252
      2 C         138.2687  140.4584  164.5318 C.ar    1  UNL1       -0.0009
      3 C         138.0403  140.2814  163.0599 C.ar    1  UNL1        0.0210
      4 C         138.3005  138.9523  162.4150 C.ar    1  UNL1        0.1397
      5 F         138.0721  138.7753  160.9431 F       1  UNL1       -0.2044
      6 C         138.7891  137.8002  163.2420 C.ar    1  UNL1        0.0587
      7 C         139.0175  137.9772  164.7139 C.ar    1  UNL1        0.1401
      8 F         139.5061  136.8251  165.5410 F       1  UNL1       -0.2044
      9 C         137.6783  138.7483  166.8565 C.3     1  UNL1        0.0291
     10 C         138.9857  139.4833  166.8307 C.3     1  UNL1        0.1080
     11 C         140.2137  140.1568  166.2938 C.3     1  UNL1        0.0388
     12 C         141.2161  140.7520  167.2377 C.3     1  UNL1        0.0671
     13 S         140.9904  140.6737  168.7185 S.3     1  UNL1       -0.0807
     14 C         139.7624  140.0002  169.2555 C.2     1  UNL1        0.1482
     15 N         139.5368  139.9219  170.7364 N.pl3   1  UNL1       -0.3380
     16 N         138.7600  139.4050  168.3116 N.2     1  UNL1       -0.2509
     17 H         140.1947  140.3125  171.3559 H       1  UNL1        0.1442
     18 H         138.7308  139.4798  171.0888 H       1  UNL1        0.1442
     19 C         137.5517  141.4335  162.2328 C.3     1  UNL1        0.0985
     20 N         137.1620  142.7210  162.8964 N.3     1  UNL1       -0.2847
     21 H         136.7538  142.4756  163.7984 H       1  UNL1        0.1244
     22 C         138.1989  143.7719  163.1618 C.3     1  UNL1        0.1226
     23 C         139.0110  144.7970  163.8964 C.3     1  UNL1        0.0314
     24 C         137.9116  144.0627  164.6049 C.3     1  UNL1        0.0314
     25 C         138.8463  143.8460  161.8107 C.1     1  UNL1        0.0860
     26 N         139.4937  143.9202  160.4597 N.1     1  UNL1       -0.1946
@<TRIPOS>BOND
     1    10     9    1
     2    10     1    1
     3     1     2   ar
     4     2     3   ar
     5     3    19    1
     6    19    20    1
     7    20    22    1
     8    22    25    1
     9    25    26    3
    10    22    23    1
    11    23    24    1
    12     3     4   ar
    13     4     5    1
    14     4     6   ar
    15     6     7   ar
    16     7     8    1
    17    10    11    1
    18    11    12    1
    19    12    13    1
    20    13    14    1
    21    14    15    1
    22    14    16    2
    23    16    10    1
    24     7     1   ar
    25    24    22    1
    26    20    21    1
    27    15    17    1
    28    15    18    1
@<TRIPOS>MOLECULE
*****
 26 28 0 0 0
SMALL
GASTEIGER

@<TRIPOS>ATOM
      1 C         140.4941  142.1830  166.5986 C.ar    1  UNL1        0.0252
      2 C         140.0884  143.3729  165.7805 C.ar    1  UNL1       -0.0009
      3 C         138.9686  143.2552  164.7895 C.ar    1  UNL1        0.0210
      4 C         138.2546  141.9474  164.6165 C.ar    1  UNL1        0.1397
      5 F         137.1347  141.8297  163.6255 F       1  UNL1       -0.2044
      6 C         138.6603  140.7574  165.4346 C.ar    1  UNL1        0.0587
      7 C         139.7801  140.8752  166.4256 C.ar    1  UNL1        0.1401
      8 F         140.1859  139.6852  167.2438 F       1  UNL1       -0.2044
      9 C         142.3867  141.8913  166.3709 C.3     1  UNL1        0.0291
     10 C         141.6140  142.3007  167.5897 C.3     1  UNL1        0.1080
     11 C         140.4524  142.6692  168.4642 C.3     1  UNL1        0.0388
     12 C         140.6789  143.0133  169.9065 C.3     1  UNL1        0.0671
     13 S         142.0671  142.9888  170.4743 S.3     1  UNL1       -0.0807
     14 C         143.2287  142.6203  169.5998 C.2     1  UNL1        0.1482
     15 N         144.6169  142.5958  170.1675 N.pl3   1  UNL1       -0.3380
     16 N         143.0022  142.2762  168.1574 N.2     1  UNL1       -0.2509
     17 H         144.7657  142.8217  171.1142 H       1  UNL1        0.1442
     18 H         145.3794  142.3540  169.5935 H       1  UNL1        0.1442
     19 C         138.5628  144.4452  163.9714 C.3     1  UNL1        0.0985
     20 N         139.6028  145.4096  163.4832 N.3     1  UNL1       -0.2847
     21 H         140.0245  145.8317  164.3105 H       1  UNL1        0.1244
     22 C         140.7310  144.9237  162.6223 C.3     1  UNL1        0.1226
     23 C         142.1287  144.6315  162.1629 C.3     1  UNL1        0.0314
     24 C         141.8989  145.3126  163.4794 C.3     1  UNL1        0.0314
     25 C         139.9548  144.3661  161.4661 C.1     1  UNL1        0.0860
     26 N         139.1788  143.8085  160.3100 N.1     1  UNL1       -0.1946
@<TRIPOS>BOND
     1    10     9    1
     2    10     1    1
     3     1     2   ar
     4     2     3   ar
     5     3    19    1
     6    19    20    1
     7    20    22    1
     8    22    25    1
     9    25    26    3
    10    22    23    1
    11    23    24    1
    12     3     4   ar
    13     4     5    1
    14     4     6   ar
    15     6     7   ar
    16     7     8    1
    17    10    11    1
    18    11    12    1
    19    12    13    1
    20    13    14    1
    21    14    15    1
    22    14    16    2
    23    16    10    1
    24     7     1   ar
    25    24    22    1
    26    20    21    1
    27    15    17    1
    28    15    18    1
@<TRIPOS>MOLECULE
*****
 26 28 0 0 0
SMALL
GASTEIGER

@<TRIPOS>ATOM
      1 C         140.4058  139.9631  166.8047 C.ar    1  UNL1        0.0252
      2 C         139.9713  140.2238  168.2165 C.ar    1  UNL1       -0.0009
      3 C         140.9090  139.9445  169.3534 C.ar    1  UNL1        0.0210
      4 C         142.2812  139.4046  169.0786 C.ar    1  UNL1        0.1397
      5 F         143.2189  139.1253  170.2157 F       1  UNL1       -0.2044
      6 C         142.7157  139.1439  167.6668 C.ar    1  UNL1        0.0587
      7 C         141.7780  139.4231  166.5299 C.ar    1  UNL1        0.1401
      8 F         142.2125  139.1624  165.1180 F       1  UNL1       -0.2044
      9 C         139.1836  138.7862  165.8883 C.3     1  UNL1        0.0291
     10 C         139.4681  140.2424  165.6676 C.3     1  UNL1        0.1080
     11 C         140.0783  141.6015  165.8419 C.3     1  UNL1        0.0388
     12 C         139.6520  142.7342  164.9558 C.3     1  UNL1        0.0671
     13 S         138.6155  142.5077  163.8953 S.3     1  UNL1       -0.0807
     14 C         138.0053  141.1486  163.7211 C.2     1  UNL1        0.1482
     15 N         136.9688  140.9221  162.6607 N.pl3   1  UNL1       -0.3380
     16 N         138.4316  140.0159  164.6072 N.2     1  UNL1       -0.2509
     17 H         136.6890  141.6656  162.0791 H       1  UNL1        0.1442
     18 H         136.5684  140.0301  162.5463 H       1  UNL1        0.1442
     19 C         140.4745  140.2052  170.7653 C.3     1  UNL1        0.0985
     20 N         140.8881  141.4711  171.4557 N.3     1  UNL1       -0.2847
     21 H         141.8190  141.3069  171.8388 H       1  UNL1        0.1244
     22 C         140.9571  142.7568  170.6863 C.3     1  UNL1        0.1226
     23 C         140.5155  144.0253  170.0183 C.3     1  UNL1        0.0314
     24 C         139.5108  143.1533  170.7111 C.3     1  UNL1        0.0314
     25 C         142.4276  142.8069  170.3942 C.1     1  UNL1        0.0860
     26 N         143.8980  142.8570  170.1021 N.1     1  UNL1       -0.1946
@<TRIPOS>BOND
     1    10     9    1
     2    10     1    1
     3     1     2   ar
     4     2     3   ar
     5     3    19    1
     6    19    20    1
     7    20    22    1
     8    22    25    1
     9    25    26    3
    10    22    23    1
    11    23    24    1
    12     3     4   ar
    13     4     5    1
    14     4     6   ar
    15     6     7   ar
    16     7     8    1
    17    10    11    1
    18    11    12    1
    19    12    13    1
    20    13    14    1
    21    14    15    1
    22    14    16    2
    23    16    10    1
    24     7     1   ar
    25    24    22    1
    26    20    21    1
    27    15    17    1
    28    15    18    1
@<TRIPOS>MOLECULE
*****
 26 28 0 0 0
SMALL
GASTEIGER

@<TRIPOS>ATOM
      1 C         141.8867  141.3847  166.5254 C.ar    1  UNL1        0.0252
      2 C         141.4091  142.6995  165.9839 C.ar    1  UNL1       -0.0009
      3 C         141.9431  143.2116  164.6791 C.ar    1  UNL1        0.0210
      4 C         142.9545  142.4089  163.9158 C.ar    1  UNL1        0.1397
      5 F         143.4885  142.9211  162.6109 F       1  UNL1       -0.2044
      6 C         143.4321  141.0941  164.4573 C.ar    1  UNL1        0.0587
      7 C         142.8981  140.5820  165.7621 C.ar    1  UNL1        0.1401
      8 F         143.3757  139.2672  166.3037 F       1  UNL1       -0.2044
      9 C         140.2859  140.3766  166.8997 C.3     1  UNL1        0.0291
     10 C         141.3527  140.8726  167.8303 C.3     1  UNL1        0.1080
     11 C         142.6049  141.5464  168.3078 C.3     1  UNL1        0.0388
     12 C         142.9527  141.5358  169.7668 C.3     1  UNL1        0.0671
     13 S         142.0482  140.8514  170.7485 S.3     1  UNL1       -0.0807
     14 C         140.7961  140.1776  170.2711 C.2     1  UNL1        0.1482
     15 N         139.8916  139.4932  171.2527 N.pl3   1  UNL1       -0.3380
     16 N         140.4483  140.1882  168.8120 N.2     1  UNL1       -0.2509
     17 H         140.1199  139.4863  172.2104 H       1  UNL1        0.1442
     18 H         139.0698  139.0509  170.9394 H       1  UNL1        0.1442
     19 C         141.4655  144.5264  164.1375 C.3     1  UNL1        0.0985
     20 N         140.0956  145.0281  164.4862 N.3     1  UNL1       -0.2847
     21 H         140.1465  146.0469  164.4869 H       1  UNL1        0.1244
     22 C         138.9201  144.6539  163.6329 C.3     1  UNL1        0.1226
     23 C         137.6144  144.0397  163.2231 C.3     1  UNL1        0.0314
     24 C         138.1371  143.8327  164.6138 C.3     1  UNL1        0.0314
     25 C         139.2950  145.3453  162.3555 C.1     1  UNL1        0.0860
     26 N         139.6699  146.0366  161.0782 N.1     1  UNL1       -0.1946
@<TRIPOS>BOND
     1    10     9    1
     2    10     1    1
     3     1     2   ar
     4     2     3   ar
     5     3    19    1
     6    19    20    1
     7    20    22    1
     8    22    25    1
     9    25    26    3
    10    22    23    1
    11    23    24    1
    12     3     4   ar
    13     4     5    1
    14     4     6   ar
    15     6     7   ar
    16     7     8    1
    17    10    11    1
    18    11    12    1
    19    12    13    1
    20    13    14    1
    21    14    15    1
    22    14    16    2
    23    16    10    1
    24     7     1   ar
    25    24    22    1
    26    20    21    1
    27    15    17    1
    28    15    18    1
@<TRIPOS>MOLECULE
*****
 26 28 0 0 0
SMALL
GASTEIGER

@<TRIPOS>ATOM
      1 C         141.3748  140.4628  166.9637 C.ar    1  UNL1        0.0252
      2 C         140.0757  140.8083  166.2982 C.ar    1  UNL1       -0.0009
      3 C         139.5474  139.9451  165.1911 C.ar    1  UNL1        0.0210
      4 C         140.3181  138.7365  164.7495 C.ar    1  UNL1        0.1397
      5 F         139.7897  137.8733  163.6423 F       1  UNL1       -0.2044
      6 C         141.6172  138.3910  165.4150 C.ar    1  UNL1        0.0587
      7 C         142.1456  139.2542  166.5221 C.ar    1  UNL1        0.1401
      8 F         143.4447  138.9087  167.1876 F       1  UNL1       -0.2044
      9 C         142.5819  141.9652  166.8957 C.3     1  UNL1        0.0291
     10 C         141.9032  141.3261  168.0709 C.3     1  UNL1        0.1080
     11 C         141.0410  140.3872  168.8615 C.3     1  UNL1        0.0388
     12 C         140.9429  140.5334  170.3511 C.3     1  UNL1        0.0671
     13 S         141.7071  141.6186  171.0501 S.3     1  UNL1       -0.0807
     14 C         142.5692  142.5575  170.2595 C.2     1  UNL1        0.1482
     15 N         143.3334  143.6427  170.9585 N.pl3   1  UNL1       -0.3380
     16 N         142.6673  142.4112  168.7698 N.2     1  UNL1       -0.2509
     17 H         143.2690  143.7387  171.9361 H       1  UNL1        0.1442
     18 H         143.8993  144.2589  170.4395 H       1  UNL1        0.1442
     19 C         138.2482  140.2906  164.5256 C.3     1  UNL1        0.0985
     20 N         137.6276  141.6383  164.7462 N.3     1  UNL1       -0.2847
     21 H         138.0471  142.0205  165.5937 H       1  UNL1        0.1244
     22 C         137.7412  142.6982  163.6909 C.3     1  UNL1        0.1226
     23 C         137.8973  144.0518  163.0637 C.3     1  UNL1        0.0314
     24 C         137.9028  143.9120  164.5571 C.3     1  UNL1        0.0314
     25 C         137.6192  141.8523  162.4581 C.1     1  UNL1        0.0860
     26 N         137.4971  141.0066  161.2253 N.1     1  UNL1       -0.1946
@<TRIPOS>BOND
     1    10     9    1
     2    10     1    1
     3     1     2   ar
     4     2     3   ar
     5     3    19    1
     6    19    20    1
     7    20    22    1
     8    22    25    1
     9    25    26    3
    10    22    23    1
    11    23    24    1
    12     3     4   ar
    13     4     5    1
    14     4     6   ar
    15     6     7   ar
    16     7     8    1
    17    10    11    1
    18    11    12    1
    19    12    13    1
    20    13    14    1
    21    14    15    1
    22    14    16    2
    23    16    10    1
    24     7     1   ar
    25    24    22    1
    26    20    21    1
    27    15    17    1
    28    15    18    1
@<TRIPOS>MOLECULE
*****
 26 28 0 0 0
SMALL
GASTEIGER

@<TRIPOS>ATOM
      1 C         139.6779  139.6136  163.9669 C.ar    1  UNL1        0.0252
      2 C         139.4537  140.9521  163.3283 C.ar    1  UNL1       -0.0009
      3 C         138.5375  141.0755  162.1471 C.ar    1  UNL1        0.0210
      4 C         137.8455  139.8603  161.6046 C.ar    1  UNL1        0.1397
      5 F         136.9292  139.9837  160.4233 F       1  UNL1       -0.2044
      6 C         138.0697  138.5217  162.2432 C.ar    1  UNL1        0.0587
      7 C         138.9859  138.3984  163.4244 C.ar    1  UNL1        0.1401
      8 F         139.2101  137.0598  164.0631 F       1  UNL1       -0.2044
      9 C         139.3305  139.9061  165.8411 C.3     1  UNL1        0.0291
     10 C         140.5942  139.4902  165.1482 C.3     1  UNL1        0.1080
     11 C         141.5397  139.1171  164.0451 C.3     1  UNL1        0.0388
     12 C         142.9625  138.7651  164.3638 C.3     1  UNL1        0.0671
     13 S         143.4399  138.7862  165.7857 S.3     1  UNL1       -0.0807
     14 C         142.4944  139.1592  166.8888 C.2     1  UNL1        0.1482
     15 N         142.9717  139.1803  168.3107 N.pl3   1  UNL1       -0.3380
     16 N         141.0716  139.5112  166.5701 N.2     1  UNL1       -0.2509
     17 H         143.9056  138.9492  168.5199 H       1  UNL1        0.1442
     18 H         142.3512  139.4251  169.0347 H       1  UNL1        0.1442
     19 C         138.3133  142.4141  161.5084 C.3     1  UNL1        0.0985
     20 N         137.5692  143.4842  162.2509 N.3     1  UNL1       -0.2847
     21 H         136.7739  143.0314  162.7013 H       1  UNL1        0.1244
     22 C         138.2669  144.2866  163.3088 C.3     1  UNL1        0.1226
     23 C         138.6600  144.7905  164.6659 C.3     1  UNL1        0.0314
     24 C         137.6319  143.7059  164.5374 C.3     1  UNL1        0.0314
     25 C         139.1443  145.1460  162.4476 C.1     1  UNL1        0.0860
     26 N         140.0217  146.0054  161.5864 N.1     1  UNL1       -0.1946
@<TRIPOS>BOND
     1    10     9    1
     2    10     1    1
     3     1     2   ar
     4     2     3   ar
     5     3    19    1
     6    19    20    1
     7    20    22    1
     8    22    25    1
     9    25    26    3
    10    22    23    1
    11    23    24    1
    12     3     4   ar
    13     4     5    1
    14     4     6   ar
    15     6     7   ar
    16     7     8    1
    17    10    11    1
    18    11    12    1
    19    12    13    1
    20    13    14    1
    21    14    15    1
    22    14    16    2
    23    16    10    1
    24     7     1   ar
    25    24    22    1
    26    20    21    1
    27    15    17    1
    28    15    18    1
@<TRIPOS>MOLECULE
*****
 26 28 0 0 0
SMALL
GASTEIGER

@<TRIPOS>ATOM
      1 C         142.2694  140.5270  167.0398 C.ar    1  UNL1        0.0252
      2 C         142.3252  141.2380  165.7202 C.ar    1  UNL1       -0.0009
      3 C         143.0230  140.6020  164.5546 C.ar    1  UNL1        0.0210
      4 C         143.6650  139.2552  164.7087 C.ar    1  UNL1        0.1397
      5 F         144.3628  138.6192  163.5430 F       1  UNL1       -0.2044
      6 C         143.6092  138.5442  166.0283 C.ar    1  UNL1        0.0587
      7 C         142.9114  139.1801  167.1938 C.ar    1  UNL1        0.1401
      8 F         142.8557  138.4692  168.5135 F       1  UNL1       -0.2044
      9 C         140.4156  140.4526  167.5658 C.3     1  UNL1        0.0291
     10 C         141.5716  141.1629  168.2055 C.3     1  UNL1        0.1080
     11 C         142.9698  141.6524  168.4404 C.3     1  UNL1        0.0388
     12 C         143.2689  142.5310  169.6187 C.3     1  UNL1        0.0671
     13 S         142.1696  142.9202  170.5622 S.3     1  UNL1       -0.0807
     14 C         140.7713  142.4308  170.3273 C.2     1  UNL1        0.1482
     15 N         139.6720  142.8200  171.2708 N.pl3   1  UNL1       -0.3380
     16 N         140.4723  141.5521  169.1490 N.2     1  UNL1       -0.2509
     17 H         139.8683  143.3967  172.0442 H       1  UNL1        0.1442
     18 H         138.7543  142.4987  171.1166 H       1  UNL1        0.1442
     19 C         143.0787  141.3130  163.2350 C.3     1  UNL1        0.0985
     20 N         144.0652  142.4227  163.0220 N.3     1  UNL1       -0.2847
     21 H         144.3840  142.3520  162.0557 H       1  UNL1        0.1244
     22 C         143.6492  143.8477  163.2375 C.3     1  UNL1        0.1226
     23 C         143.4773  145.1805  163.9038 C.3     1  UNL1        0.0314
     24 C         144.2077  144.0773  164.6105 C.3     1  UNL1        0.0314
     25 C         142.9461  144.1129  161.9392 C.1     1  UNL1        0.0860
     26 N         142.2432  144.3780  160.6409 N.1     1  UNL1       -0.1946
@<TRIPOS>BOND
     1    10     9    1
     2    10     1    1
     3     1     2   ar
     4     2     3   ar
     5     3    19    1
     6    19    20    1
     7    20    22    1
     8    22    25    1
     9    25    26    3
    10    22    23    1
    11    23    24    1
    12     3     4   ar
    13     4     5    1
    14     4     6   ar
    15     6     7   ar
    16     7     8    1
    17    10    11    1
    18    11    12    1
    19    12    13    1
    20    13    14    1
    21    14    15    1
    22    14    16    2
    23    16    10    1
    24     7     1   ar
    25    24    22    1
    26    20    21    1
    27    15    17    1
    28    15    18    1
@<TRIPOS>MOLECULE
*****
 26 28 0 0 0
SMALL
GASTEIGER

@<TRIPOS>ATOM
      1 C         142.1201  141.6330  166.0338 C.ar    1  UNL1        0.0252
      2 C         140.8996  140.8019  165.7698 C.ar    1  UNL1       -0.0009
      3 C         140.1228  140.2252  166.9161 C.ar    1  UNL1        0.0210
      4 C         140.5664  140.4795  168.3262 C.ar    1  UNL1        0.1397
      5 F         139.7894  139.9028  169.4724 F       1  UNL1       -0.2044
      6 C         141.7868  141.3106  168.5901 C.ar    1  UNL1        0.0587
      7 C         142.5637  141.8873  167.4439 C.ar    1  UNL1        0.1401
      8 F         143.7842  142.7185  167.7078 F       1  UNL1       -0.2044
      9 C         141.8470  143.2687  165.0496 C.3     1  UNL1        0.0291
     10 C         142.8970  142.2097  164.8875 C.3     1  UNL1        0.1080
     11 C         143.6772  140.9506  165.1236 C.3     1  UNL1        0.0388
     12 C         144.8696  140.6359  164.2697 C.3     1  UNL1        0.0671
     13 S         145.2818  141.5804  163.1798 S.3     1  UNL1       -0.0807
     14 C         144.5017  142.8396  162.9437 C.2     1  UNL1        0.1482
     15 N         144.9139  143.7841  161.8538 N.pl3   1  UNL1       -0.3380
     16 N         143.3093  143.1543  163.7976 N.2     1  UNL1       -0.2509
     17 H         145.6966  143.5776  161.2933 H       1  UNL1        0.1442
     18 H         144.4019  144.6106  161.6989 H       1  UNL1        0.1442
     19 C         138.9022  139.3940  166.6521 C.3     1  UNL1        0.0985
     20 N         137.9865  139.7456  165.5173 N.3     1  UNL1       -0.2847
     21 H         137.9608  140.7639  165.4643 H       1  UNL1        0.1244
     22 C         138.2814  139.2473  164.1336 C.3     1  UNL1        0.1226
     23 C         138.7522  138.3466  163.0303 C.3     1  UNL1        0.0314
     24 C         138.8904  137.9160  164.4605 C.3     1  UNL1        0.0314
     25 C         137.7747  140.4055  163.3262 C.1     1  UNL1        0.0860
     26 N         137.2682  141.5637  162.5188 N.1     1  UNL1       -0.1946
@<TRIPOS>BOND
     1    10     9    1
     2    10     1    1
     3     1     2   ar
     4     2     3   ar
     5     3    19    1
     6    19    20    1
     7    20    22    1
     8    22    25    1
     9    25    26    3
    10    22    23    1
    11    23    24    1
    12     3     4   ar
    13     4     5    1
    14     4     6   ar
    15     6     7   ar
    16     7     8    1
    17    10    11    1
    18    11    12    1
    19    12    13    1
    20    13    14    1
    21    14    15    1
    22    14    16    2
    23    16    10    1
    24     7     1   ar
    25    24    22    1
    26    20    21    1
    27    15    17    1
    28    15    18    1
