@<TRIPOS>MOLECULE
*****
 36 38 0 0 0
SMALL
GASTEIGER

@<TRIPOS>ATOM
      1 N         139.0673  139.9037  159.8129 N.3     1  UNL1       -0.2705
      2 C         139.8909  138.9830  160.6639 C.3     1  UNL1        0.0739
      3 C         139.8377  139.0950  162.1587 C.3     1  UNL1        0.0394
      4 C         138.9608  140.1276  162.8027 C.3     1  UNL1        0.1017
      5 C         138.1372  141.0483  161.9518 C.3     1  UNL1        0.1490
      6 C         138.1904  140.9363  160.4569 C.3     1  UNL1        0.1037
      7 N         138.9075  140.2395  164.2976 N.am    1  UNL1       -0.2999
      8 C         139.9883  140.9744  165.0337 C.2     1  UNL1        0.2488
      9 O         141.1223  141.5974  164.2749 O.2     1  UNL1       -0.2700
     10 H         138.1632  139.8307  164.7957 H       1  UNL1        0.1498
     11 C         139.9350  141.0864  166.5285 C.ar    1  UNL1        0.0882
     12 C         140.4653  142.3140  167.2081 C.ar    1  UNL1        0.0202
     13 C         140.4120  142.4259  168.7029 C.ar    1  UNL1        0.0709
     14 CL        140.9423  143.6535  169.3825 Cl      1  UNL1       -0.0810
     15 C         139.8284  141.3102  169.5183 C.ar    1  UNL1        0.0553
     16 N         139.7751  141.4221  171.0131 N.pl3   1  UNL1       -0.3563
     17 C         139.2981  140.0827  168.8387 C.ar    1  UNL1        0.0520
     18 C         139.3514  139.9707  167.3438 C.ar    1  UNL1        0.1443
     19 H         140.1231  142.2278  171.4591 H       1  UNL1        0.1424
     20 H         139.3921  140.6899  171.5482 H       1  UNL1        0.1424
     21 O         138.8211  138.7431  166.6643 O.3     1  UNL1       -0.4712
     22 C         137.4839  138.1876  167.0557 C.3     1  UNL1        0.2525
     23 O         137.2603  142.0809  162.5958 O.3     1  UNL1       -0.3505
     24 C         137.8066  143.4443  162.9004 C.3     1  UNL1        0.1741
     25 C         139.1206  139.7917  158.3181 C.3     1  UNL1        0.0722
     26 C         143.5803  136.7542  155.6943 C.2     1  UNL1        0.4049
     27 O         144.9315  137.3876  155.5426 O.2     1  UNL1       -0.2262
     28 N         142.4654  137.5136  156.3502 N.am    1  UNL1       -0.2460
     29 C         141.1142  136.8802  156.5019 C.3     1  UNL1        0.0968
     30 C         139.9993  137.6396  157.1578 C.3     1  UNL1        0.0231
     31 C         140.2355  139.0323  157.6621 C.3     1  UNL1        0.0194
     32 C         141.5867  139.6657  157.5105 C.3     1  UNL1        0.0231
     33 C         142.7017  138.9063  156.8545 C.3     1  UNL1        0.0968
     34 O         143.3440  135.3615  155.1899 O.3     1  UNL1       -0.4345
     35 C         143.7839  132.8098  155.4033 C.3     1  UNL1        0.0513
     36 C         143.7852  134.1832  156.0066 C.3     1  UNL1        0.2102
@<TRIPOS>BOND
     1    35    36    1
     2    36    34    1
     3    34    26    1
     4    26    27    2
     5    26    28   am
     6    28    29    1
     7    29    30    1
     8    30    31    1
     9    31    25    1
    10    25     1    1
    11     1     2    1
    12     2     3    1
    13     3     4    1
    14     4     7    1
    15     7     8   am
    16     8     9    2
    17     8    11    1
    18    11    12   ar
    19    12    13   ar
    20    13    14    1
    21    13    15   ar
    22    15    16    1
    23    15    17   ar
    24    17    18   ar
    25    18    21    1
    26    21    22    1
    27     4     5    1
    28     5    23    1
    29    23    24    1
    30     5     6    1
    31    31    32    1
    32    32    33    1
    33    33    28    1
    34     6     1    1
    35    18    11   ar
    36     7    10    1
    37    16    19    1
    38    16    20    1
@<TRIPOS>MOLECULE
*****
 36 38 0 0 0
SMALL
GASTEIGER

@<TRIPOS>ATOM
      1 N         141.3229  138.2388  157.7792 N.3     1  UNL1       -0.2705
      2 C         139.8870  138.3186  158.2059 C.3     1  UNL1        0.0739
      3 C         139.5432  138.7102  159.6124 C.3     1  UNL1        0.0394
      4 C         140.6352  139.0223  160.5923 C.3     1  UNL1        0.1017
      5 C         142.0710  138.9426  160.1657 C.3     1  UNL1        0.1490
      6 C         142.4149  138.5509  158.7591 C.3     1  UNL1        0.1037
      7 N         140.2913  139.4140  161.9989 N.am    1  UNL1       -0.2999
      8 C         140.3355  138.3905  163.0946 C.2     1  UNL1        0.2488
      9 O         140.7236  136.9753  162.7837 O.2     1  UNL1       -0.2700
     10 H         140.0367  140.3428  162.2029 H       1  UNL1        0.1498
     11 C         139.9917  138.7822  164.5011 C.ar    1  UNL1        0.0882
     12 C         138.7777  138.2034  165.1654 C.ar    1  UNL1        0.0202
     13 C         138.4338  138.5951  166.5719 C.ar    1  UNL1        0.0709
     14 CL        137.2199  138.0162  167.2361 Cl      1  UNL1       -0.0810
     15 C         139.3039  139.5657  167.3141 C.ar    1  UNL1        0.0553
     16 N         138.9600  139.9574  168.7206 N.pl3   1  UNL1       -0.3563
     17 C         140.5178  140.1446  166.6499 C.ar    1  UNL1        0.0520
     18 C         140.8617  139.7529  165.2433 C.ar    1  UNL1        0.1443
     19 H         138.1632  139.5775  169.1566 H       1  UNL1        0.1424
     20 H         139.5310  140.5945  169.2077 H       1  UNL1        0.1424
     21 O         142.0756  140.3317  164.5791 O.3     1  UNL1       -0.4712
     22 C         143.4456  139.9385  165.0465 C.3     1  UNL1        0.2525
     23 O         143.1630  139.2546  161.1456 O.3     1  UNL1       -0.3505
     24 C         143.9695  138.1429  161.7489 C.3     1  UNL1        0.1741
     25 C         141.6667  137.8472  156.3727 C.3     1  UNL1        0.0722
     26 C         143.2310  132.1892  155.1314 C.2     1  UNL1        0.4049
     27 O         142.2648  131.2804  154.4310 O.2     1  UNL1       -0.2262
     28 N         142.8399  133.6037  155.4417 N.am    1  UNL1       -0.2460
     29 C         143.8061  134.5125  156.1421 C.3     1  UNL1        0.0968
     30 C         143.4150  135.9270  156.4524 C.3     1  UNL1        0.0231
     31 C         142.0578  136.4327  156.0624 C.3     1  UNL1        0.0194
     32 C         141.0916  135.5239  155.3620 C.3     1  UNL1        0.0231
     33 C         141.4827  134.1094  155.0517 C.3     1  UNL1        0.0968
     34 O         144.5882  131.6835  155.5214 O.3     1  UNL1       -0.4345
     35 C         145.3938  131.8367  157.9867 C.3     1  UNL1        0.0513
     36 C         144.7936  131.0448  156.8630 C.3     1  UNL1        0.2102
@<TRIPOS>BOND
     1    35    36    1
     2    36    34    1
     3    34    26    1
     4    26    27    2
     5    26    28   am
     6    28    29    1
     7    29    30    1
     8    30    31    1
     9    31    25    1
    10    25     1    1
    11     1     2    1
    12     2     3    1
    13     3     4    1
    14     4     7    1
    15     7     8   am
    16     8     9    2
    17     8    11    1
    18    11    12   ar
    19    12    13   ar
    20    13    14    1
    21    13    15   ar
    22    15    16    1
    23    15    17   ar
    24    17    18   ar
    25    18    21    1
    26    21    22    1
    27     4     5    1
    28     5    23    1
    29    23    24    1
    30     5     6    1
    31    31    32    1
    32    32    33    1
    33    33    28    1
    34     6     1    1
    35    18    11   ar
    36     7    10    1
    37    16    19    1
    38    16    20    1
@<TRIPOS>MOLECULE
*****
 36 38 0 0 0
SMALL
GASTEIGER

@<TRIPOS>ATOM
      1 N         139.2899  138.0937  162.3588 N.3     1  UNL1       -0.2705
      2 C         137.9180  138.6807  162.2055 C.3     1  UNL1        0.0739
      3 C         137.5317  139.3602  160.9253 C.3     1  UNL1        0.0394
      4 C         138.5172  139.4528  159.7983 C.3     1  UNL1        0.1017
      5 C         139.8890  138.8659  159.9515 C.3     1  UNL1        0.1490
      6 C         140.2754  138.1863  161.2318 C.3     1  UNL1        0.1037
      7 N         138.1308  140.1324  158.5181 N.am    1  UNL1       -0.2999
      8 C         138.1676  141.6289  158.4226 C.2     1  UNL1        0.2488
      9 O         138.5908  142.4459  159.6072 O.2     1  UNL1       -0.2700
     10 H         137.8531  139.5962  157.7405 H       1  UNL1        0.1498
     11 C         137.7813  142.3084  157.1424 C.ar    1  UNL1        0.0882
     12 C         138.5520  143.5037  156.6654 C.ar    1  UNL1        0.0202
     13 C         138.1656  144.1832  155.3852 C.ar    1  UNL1        0.0709
     14 CL        138.9363  145.3783  154.9083 Cl      1  UNL1       -0.0810
     15 C         137.0086  143.6675  154.5819 C.ar    1  UNL1        0.0553
     16 N         136.6222  144.3470  153.3017 N.pl3   1  UNL1       -0.3563
     17 C         136.2378  142.4723  155.0588 C.ar    1  UNL1        0.0520
     18 C         136.6242  141.7927  156.3391 C.ar    1  UNL1        0.1443
     19 H         137.1280  145.1314  152.9887 H       1  UNL1        0.1424
     20 H         135.8628  144.0085  152.7745 H       1  UNL1        0.1424
     21 O         135.8535  140.5975  156.8160 O.3     1  UNL1       -0.4712
     22 C         134.4807  140.3260  156.2760 C.3     1  UNL1        0.2525
     23 O         140.8745  138.9585  158.8245 O.3     1  UNL1       -0.3505
     24 C         142.2075  138.2796  158.9361 C.3     1  UNL1        0.1741
     25 C         139.6762  137.4142  163.6390 C.3     1  UNL1        0.0722
     26 C         139.8420  140.5352  168.7607 C.2     1  UNL1        0.4049
     27 O         138.6392  140.5714  169.6561 O.2     1  UNL1       -0.2262
     28 N         139.8005  139.7549  167.4802 N.am    1  UNL1       -0.2460
     29 C         141.0033  139.7187  166.5848 C.3     1  UNL1        0.0968
     30 C         140.9619  138.9384  165.3043 C.3     1  UNL1        0.0231
     31 C         139.7176  138.1944  164.9194 C.3     1  UNL1        0.0194
     32 C         138.5148  138.2307  165.8148 C.3     1  UNL1        0.0231
     33 C         138.5563  139.0109  167.0953 C.3     1  UNL1        0.0968
     34 O         141.0863  141.2792  169.1456 O.3     1  UNL1       -0.4345
     35 C         140.4597  143.7233  169.7651 C.3     1  UNL1        0.0513
     36 C         141.1900  142.7527  168.8849 C.3     1  UNL1        0.2102
@<TRIPOS>BOND
     1    35    36    1
     2    36    34    1
     3    34    26    1
     4    26    27    2
     5    26    28   am
     6    28    29    1
     7    29    30    1
     8    30    31    1
     9    31    25    1
    10    25     1    1
    11     1     2    1
    12     2     3    1
    13     3     4    1
    14     4     7    1
    15     7     8   am
    16     8     9    2
    17     8    11    1
    18    11    12   ar
    19    12    13   ar
    20    13    14    1
    21    13    15   ar
    22    15    16    1
    23    15    17   ar
    24    17    18   ar
    25    18    21    1
    26    21    22    1
    27     4     5    1
    28     5    23    1
    29    23    24    1
    30     5     6    1
    31    31    32    1
    32    32    33    1
    33    33    28    1
    34     6     1    1
    35    18    11   ar
    36     7    10    1
    37    16    19    1
    38    16    20    1
@<TRIPOS>MOLECULE
*****
 36 38 0 0 0
SMALL
GASTEIGER

@<TRIPOS>ATOM
      1 N         140.9038  140.6684  160.1872 N.3     1  UNL1       -0.2705
      2 C         141.8065  141.5643  160.9827 C.3     1  UNL1        0.0739
      3 C         141.6474  141.6585  162.4712 C.3     1  UNL1        0.0394
      4 C         140.5857  140.8570  163.1643 C.3     1  UNL1        0.1017
      5 C         139.6831  139.9612  162.3689 C.3     1  UNL1        0.1490
      6 C         139.8422  139.8669  160.8802 C.3     1  UNL1        0.1037
      7 N         140.4267  140.9513  164.6529 N.am    1  UNL1       -0.2999
      8 C         141.1345  139.9760  165.5461 C.2     1  UNL1        0.2488
      9 O         142.0014  138.9064  164.9507 O.2     1  UNL1       -0.2700
     10 H         139.8577  141.6533  165.0437 H       1  UNL1        0.1498
     11 C         140.9754  140.0703  167.0346 C.ar    1  UNL1        0.0882
     12 C         142.1766  140.2953  167.9045 C.ar    1  UNL1        0.0202
     13 C         142.0175  140.3896  169.3930 C.ar    1  UNL1        0.0709
     14 CL        143.2187  140.6146  170.2628 Cl      1  UNL1       -0.0810
     15 C         140.6574  140.2590  170.0117 C.ar    1  UNL1        0.0553
     16 N         140.4983  140.3533  171.5003 N.pl3   1  UNL1       -0.3563
     17 C         139.4562  140.0340  169.1419 C.ar    1  UNL1        0.0520
     18 C         139.6152  139.9397  167.6533 C.ar    1  UNL1        0.1443
     19 H         141.2866  140.5010  172.0712 H       1  UNL1        0.1424
     20 H         139.6055  140.2676  171.9063 H       1  UNL1        0.1424
     21 O         138.4141  139.7147  166.7835 O.3     1  UNL1       -0.4712
     22 C         137.7190  138.3856  166.7938 C.3     1  UNL1        0.2525
     23 O         138.6215  139.1596  163.0619 O.3     1  UNL1       -0.3505
     24 C         138.8261  137.6932  163.3026 C.3     1  UNL1        0.1741
     25 C         141.0629  140.5742  158.6986 C.3     1  UNL1        0.0722
     26 C         142.0423  135.2471  156.1175 C.2     1  UNL1        0.4049
     27 O         141.0485  134.6933  155.1399 O.2     1  UNL1       -0.2262
     28 N         141.7975  136.5788  156.7628 N.am    1  UNL1       -0.2460
     29 C         142.7913  137.1326  157.7403 C.3     1  UNL1        0.0968
     30 C         142.5464  138.4644  158.3856 C.3     1  UNL1        0.0231
     31 C         141.3078  139.2424  158.0533 C.3     1  UNL1        0.0194
     32 C         140.3140  138.6886  157.0758 C.3     1  UNL1        0.0231
     33 C         140.5588  137.3568  156.4305 C.3     1  UNL1        0.0968
     34 O         143.2810  134.4691  156.4497 O.3     1  UNL1       -0.4345
     35 C         143.2014  131.8779  156.6216 C.3     1  UNL1        0.0513
     36 C         143.5059  133.1190  155.8360 C.3     1  UNL1        0.2102
@<TRIPOS>BOND
     1    35    36    1
     2    36    34    1
     3    34    26    1
     4    26    27    2
     5    26    28   am
     6    28    29    1
     7    29    30    1
     8    30    31    1
     9    31    25    1
    10    25     1    1
    11     1     2    1
    12     2     3    1
    13     3     4    1
    14     4     7    1
    15     7     8   am
    16     8     9    2
    17     8    11    1
    18    11    12   ar
    19    12    13   ar
    20    13    14    1
    21    13    15   ar
    22    15    16    1
    23    15    17   ar
    24    17    18   ar
    25    18    21    1
    26    21    22    1
    27     4     5    1
    28     5    23    1
    29    23    24    1
    30     5     6    1
    31    31    32    1
    32    32    33    1
    33    33    28    1
    34     6     1    1
    35    18    11   ar
    36     7    10    1
    37    16    19    1
    38    16    20    1
@<TRIPOS>MOLECULE
*****
 36 38 0 0 0
SMALL
GASTEIGER

@<TRIPOS>ATOM
      1 N         140.7119  140.0914  159.7440 N.3     1  UNL1       -0.2705
      2 C         141.5208  141.2897  160.1440 C.3     1  UNL1        0.0739
      3 C         141.7343  141.5997  161.5960 C.3     1  UNL1        0.0394
      4 C         141.1391  140.7115  162.6480 C.3     1  UNL1        0.1017
      5 C         140.3302  139.5133  162.2481 C.3     1  UNL1        0.1490
      6 C         140.1166  139.2032  160.7960 C.3     1  UNL1        0.1037
      7 N         141.3527  141.0216  164.1000 N.am    1  UNL1       -0.2999
      8 C         142.3667  140.2492  164.8906 C.2     1  UNL1        0.2488
      9 O         143.1673  139.1667  164.2292 O.2     1  UNL1       -0.2700
     10 H         140.8273  141.7320  164.5341 H       1  UNL1        0.1498
     11 C         142.5803  140.5593  166.3425 C.ar    1  UNL1        0.0882
     12 C         142.4440  139.4742  167.3692 C.ar    1  UNL1        0.0202
     13 C         142.6575  139.7843  168.8211 C.ar    1  UNL1        0.0709
     14 CL        142.5212  138.6992  169.8477 Cl      1  UNL1       -0.0810
     15 C         143.0074  141.1795  169.2465 C.ar    1  UNL1        0.0553
     16 N         143.2210  141.4896  170.6985 N.pl3   1  UNL1       -0.3563
     17 C         143.1437  142.2646  168.2200 C.ar    1  UNL1        0.0520
     18 C         142.9302  141.9545  166.7679 C.ar    1  UNL1        0.1443
     19 H         143.1315  140.7774  171.3723 H       1  UNL1        0.1424
     20 H         143.4506  142.4053  170.9776 H       1  UNL1        0.1424
     21 O         143.0665  143.0397  165.7414 O.3     1  UNL1       -0.4712
     22 C         144.4187  143.3884  165.1937 C.3     1  UNL1        0.2525
     23 O         139.7350  138.6251  163.3001 O.3     1  UNL1       -0.3505
     24 C         138.4585  139.0209  163.9813 C.3     1  UNL1        0.1741
     25 C         140.4983  139.7814  158.2921 C.3     1  UNL1        0.0722
     26 C         142.6693  134.6977  155.9590 C.2     1  UNL1        0.4049
     27 O         141.8770  133.9461  154.9307 O.2     1  UNL1       -0.2262
     28 N         142.1266  135.9686  156.5422 N.am    1  UNL1       -0.2460
     29 C         142.9188  136.7202  157.5705 C.3     1  UNL1        0.0968
     30 C         142.3761  137.9911  158.1538 C.3     1  UNL1        0.0231
     31 C         141.0411  138.5104  157.7088 C.3     1  UNL1        0.0194
     32 C         140.2488  137.7588  156.6806 C.3     1  UNL1        0.0231
     33 C         140.7916  136.4879  156.0973 C.3     1  UNL1        0.0968
     34 O         144.0043  134.1784  156.4039 O.3     1  UNL1       -0.4345
     35 C         145.1517  132.2153  157.6608 C.3     1  UNL1        0.0513
     36 C         144.0987  133.2820  157.6029 C.3     1  UNL1        0.2102
@<TRIPOS>BOND
     1    35    36    1
     2    36    34    1
     3    34    26    1
     4    26    27    2
     5    26    28   am
     6    28    29    1
     7    29    30    1
     8    30    31    1
     9    31    25    1
    10    25     1    1
    11     1     2    1
    12     2     3    1
    13     3     4    1
    14     4     7    1
    15     7     8   am
    16     8     9    2
    17     8    11    1
    18    11    12   ar
    19    12    13   ar
    20    13    14    1
    21    13    15   ar
    22    15    16    1
    23    15    17   ar
    24    17    18   ar
    25    18    21    1
    26    21    22    1
    27     4     5    1
    28     5    23    1
    29    23    24    1
    30     5     6    1
    31    31    32    1
    32    32    33    1
    33    33    28    1
    34     6     1    1
    35    18    11   ar
    36     7    10    1
    37    16    19    1
    38    16    20    1
@<TRIPOS>MOLECULE
*****
 36 38 0 0 0
SMALL
GASTEIGER

@<TRIPOS>ATOM
      1 N         140.0492  139.8754  160.5369 N.3     1  UNL1       -0.2705
      2 C         139.6567  138.9878  161.6807 C.3     1  UNL1        0.0739
      3 C         140.1439  139.2908  163.0666 C.3     1  UNL1        0.0394
      4 C         141.0236  140.4813  163.3088 C.3     1  UNL1        0.1017
      5 C         141.4161  141.3689  162.1651 C.3     1  UNL1        0.1490
      6 C         140.9289  141.0659  160.7791 C.3     1  UNL1        0.1037
      7 N         141.5108  140.7843  164.6948 N.am    1  UNL1       -0.2999
      8 C         140.7962  141.8003  165.5356 C.2     1  UNL1        0.2488
      9 O         139.5944  142.5134  164.9905 O.2     1  UNL1       -0.2700
     10 H         142.2996  140.3163  165.0526 H       1  UNL1        0.1498
     11 C         141.2835  142.1033  166.9215 C.ar    1  UNL1        0.0882
     12 C         140.2985  142.3315  168.0297 C.ar    1  UNL1        0.0202
     13 C         140.7858  142.6344  169.4156 C.ar    1  UNL1        0.0709
     14 CL        139.8009  142.8627  170.5236 Cl      1  UNL1       -0.0810
     15 C         142.2579  142.7091  169.6935 C.ar    1  UNL1        0.0553
     16 N         142.7451  143.0121  171.0794 N.pl3   1  UNL1       -0.3563
     17 C         143.2428  142.4809  168.5854 C.ar    1  UNL1        0.0520
     18 C         142.7556  142.1779  167.1994 C.ar    1  UNL1        0.1443
     19 H         142.0987  143.1619  171.8066 H       1  UNL1        0.1424
     20 H         143.7114  143.0611  171.2617 H       1  UNL1        0.1424
     21 O         143.7405  141.9497  166.0914 O.3     1  UNL1       -0.4712
     22 C         144.3014  143.1168  165.3342 C.3     1  UNL1        0.2525
     23 O         142.2958  142.5595  162.4073 O.3     1  UNL1       -0.3505
     24 C         141.7008  143.9359  162.4470 C.3     1  UNL1        0.1741
     25 C         139.5620  139.5724  159.1510 C.3     1  UNL1        0.0722
     26 C         142.7107  135.9019  155.5996 C.2     1  UNL1        0.4049
     27 O         144.1507  135.6147  155.9060 O.2     1  UNL1       -0.2262
     28 N         141.9235  136.8195  156.4874 N.am    1  UNL1       -0.2460
     29 C         140.4835  137.1067  156.1810 C.3     1  UNL1        0.0968
     30 C         139.6963  138.0243  157.0689 C.3     1  UNL1        0.0231
     31 C         140.3491  138.6547  158.2632 C.3     1  UNL1        0.0194
     32 C         141.7891  138.3676  158.5696 C.3     1  UNL1        0.0231
     33 C         142.5763  137.4499  157.6817 C.3     1  UNL1        0.0968
     34 O         142.0579  135.2714  154.4053 O.3     1  UNL1       -0.4345
     35 C         141.6012  132.9721  155.5256 C.3     1  UNL1        0.0513
     36 C         141.9512  133.7783  154.3099 C.3     1  UNL1        0.2102
@<TRIPOS>BOND
     1    35    36    1
     2    36    34    1
     3    34    26    1
     4    26    27    2
     5    26    28   am
     6    28    29    1
     7    29    30    1
     8    30    31    1
     9    31    25    1
    10    25     1    1
    11     1     2    1
    12     2     3    1
    13     3     4    1
    14     4     7    1
    15     7     8   am
    16     8     9    2
    17     8    11    1
    18    11    12   ar
    19    12    13   ar
    20    13    14    1
    21    13    15   ar
    22    15    16    1
    23    15    17   ar
    24    17    18   ar
    25    18    21    1
    26    21    22    1
    27     4     5    1
    28     5    23    1
    29    23    24    1
    30     5     6    1
    31    31    32    1
    32    32    33    1
    33    33    28    1
    34     6     1    1
    35    18    11   ar
    36     7    10    1
    37    16    19    1
    38    16    20    1
@<TRIPOS>MOLECULE
*****
 36 38 0 0 0
SMALL
GASTEIGER

@<TRIPOS>ATOM
      1 N         139.5440  139.0307  162.9188 N.3     1  UNL1       -0.2705
      2 C         138.1160  139.0129  162.4597 C.3     1  UNL1        0.0739
      3 C         137.6995  139.8306  161.2732 C.3     1  UNL1        0.0394
      4 C         138.7108  140.6661  160.5457 C.3     1  UNL1        0.1017
      5 C         140.1387  140.6839  161.0048 C.3     1  UNL1        0.1490
      6 C         140.5553  139.8662  162.1913 C.3     1  UNL1        0.1037
      7 N         138.2941  141.4838  159.3592 N.am    1  UNL1       -0.2999
      8 C         138.2560  140.8609  157.9952 C.2     1  UNL1        0.2488
      9 O         138.6344  139.4204  157.8177 O.2     1  UNL1       -0.2700
     10 H         138.0457  142.4293  159.4757 H       1  UNL1        0.1498
     11 C         137.8393  141.6786  156.8087 C.ar    1  UNL1        0.0882
     12 C         136.5904  141.3263  156.0562 C.ar    1  UNL1        0.0202
     13 C         136.1738  142.1440  154.8698 C.ar    1  UNL1        0.0709
     14 CL        134.9250  141.7917  154.1173 Cl      1  UNL1       -0.0810
     15 C         137.0060  143.3141  154.4357 C.ar    1  UNL1        0.0553
     16 N         136.5894  144.1318  153.2493 N.pl3   1  UNL1       -0.3563
     17 C         138.2549  143.6664  155.1881 C.ar    1  UNL1        0.0520
     18 C         138.6716  142.8487  156.3747 C.ar    1  UNL1        0.1443
     19 H         135.7697  143.9005  152.7554 H       1  UNL1        0.1424
     20 H         137.1356  144.8997  152.9644 H       1  UNL1        0.1424
     21 O         139.9204  143.2010  157.1271 O.3     1  UNL1       -0.4712
     22 C         139.9606  144.4362  157.9773 C.3     1  UNL1        0.2525
     23 O         141.1500  141.5194  160.2773 O.3     1  UNL1       -0.3505
     24 C         141.9436  140.9252  159.1517 C.3     1  UNL1        0.1741
     25 C         139.9605  138.2130  164.1053 C.3     1  UNL1        0.0722
     26 C         139.7926  140.6050  169.6053 C.2     1  UNL1        0.4049
     27 O         138.4913  140.6912  170.3463 O.2     1  UNL1       -0.2262
     28 N         139.8346  140.0070  168.2303 N.am    1  UNL1       -0.2460
     29 C         141.1359  139.9208  167.4894 C.3     1  UNL1        0.0968
     30 C         141.1779  139.3228  166.1144 C.3     1  UNL1        0.0231
     31 C         139.9186  138.8110  165.4803 C.3     1  UNL1        0.0194
     32 C         138.6172  138.8972  166.2212 C.3     1  UNL1        0.0231
     33 C         138.5752  139.4952  167.5963 C.3     1  UNL1        0.0968
     34 O         141.0519  141.1167  170.2394 O.3     1  UNL1       -0.4345
     35 C         140.4094  143.5408  169.5602 C.3     1  UNL1        0.0513
     36 C         141.3509  142.5866  170.2334 C.3     1  UNL1        0.2102
@<TRIPOS>BOND
     1    35    36    1
     2    36    34    1
     3    34    26    1
     4    26    27    2
     5    26    28   am
     6    28    29    1
     7    29    30    1
     8    30    31    1
     9    31    25    1
    10    25     1    1
    11     1     2    1
    12     2     3    1
    13     3     4    1
    14     4     7    1
    15     7     8   am
    16     8     9    2
    17     8    11    1
    18    11    12   ar
    19    12    13   ar
    20    13    14    1
    21    13    15   ar
    22    15    16    1
    23    15    17   ar
    24    17    18   ar
    25    18    21    1
    26    21    22    1
    27     4     5    1
    28     5    23    1
    29    23    24    1
    30     5     6    1
    31    31    32    1
    32    32    33    1
    33    33    28    1
    34     6     1    1
    35    18    11   ar
    36     7    10    1
    37    16    19    1
    38    16    20    1
@<TRIPOS>MOLECULE
*****
 36 38 0 0 0
SMALL
GASTEIGER

@<TRIPOS>ATOM
      1 N         140.8112  140.0504  160.0408 N.3     1  UNL1       -0.2705
      2 C         139.8341  139.2079  160.8060 C.3     1  UNL1        0.0739
      3 C         139.8185  139.2522  162.3052 C.3     1  UNL1        0.0394
      4 C         140.7801  140.1390  163.0393 C.3     1  UNL1        0.1017
      5 C         141.7572  140.9814  162.2742 C.3     1  UNL1        0.1490
      6 C         141.7728  140.9371  160.7749 C.3     1  UNL1        0.1037
      7 N         140.7645  140.1833  164.5387 N.am    1  UNL1       -0.2999
      8 C         140.0691  141.3068  165.2486 C.2     1  UNL1        0.2488
      9 O         139.3892  142.3860  164.4593 O.2     1  UNL1       -0.2700
     10 H         141.2108  139.4749  165.0567 H       1  UNL1        0.1498
     11 C         140.0535  141.3510  166.7478 C.ar    1  UNL1        0.0882
     12 C         140.4535  142.6062  167.4653 C.ar    1  UNL1        0.0202
     13 C         140.4379  142.6504  168.9646 C.ar    1  UNL1        0.0709
     14 CL        140.8378  143.9055  169.6820 Cl      1  UNL1       -0.0810
     15 C         140.0225  141.4396  169.7464 C.ar    1  UNL1        0.0553
     16 N         140.0069  141.4838  171.2456 N.pl3   1  UNL1       -0.3563
     17 C         139.6225  140.1845  169.0290 C.ar    1  UNL1        0.0520
     18 C         139.6381  140.1402  167.5297 C.ar    1  UNL1        0.1443
     19 H         140.2694  142.3076  171.7165 H       1  UNL1        0.1424
     20 H         139.7342  140.6891  171.7587 H       1  UNL1        0.1424
     21 O         139.2382  138.8851  166.8122 O.3     1  UNL1       -0.4712
     22 C         137.7862  138.5563  166.6287 C.3     1  UNL1        0.2525
     23 O         142.7188  141.8682  163.0084 O.3     1  UNL1       -0.3505
     24 C         144.0177  141.3117  163.5117 C.3     1  UNL1        0.1741
     25 C         140.8268  140.0060  158.5416 C.3     1  UNL1        0.0722
     26 C         142.2026  134.9009  155.7052 C.2     1  UNL1        0.4049
     27 O         141.2326  134.2983  154.7327 O.2     1  UNL1       -0.2262
     28 N         141.8587  136.1772  156.4143 N.am    1  UNL1       -0.2460
     29 C         142.8287  136.7798  157.3868 C.3     1  UNL1        0.0968
     30 C         142.4848  138.0561  158.0959 C.3     1  UNL1        0.0231
     31 C         141.1707  138.7298  157.8325 C.3     1  UNL1        0.0194
     32 C         140.2007  138.1272  156.8600 C.3     1  UNL1        0.0231
     33 C         140.5446  136.8509  156.1509 C.3     1  UNL1        0.0968
     34 O         143.5166  134.2272  155.9687 O.3     1  UNL1       -0.4345
     35 C         144.7194  131.9572  156.3568 C.3     1  UNL1        0.0513
     36 C         143.6986  132.7783  155.6260 C.3     1  UNL1        0.2102
@<TRIPOS>BOND
     1    35    36    1
     2    36    34    1
     3    34    26    1
     4    26    27    2
     5    26    28   am
     6    28    29    1
     7    29    30    1
     8    30    31    1
     9    31    25    1
    10    25     1    1
    11     1     2    1
    12     2     3    1
    13     3     4    1
    14     4     7    1
    15     7     8   am
    16     8     9    2
    17     8    11    1
    18    11    12   ar
    19    12    13   ar
    20    13    14    1
    21    13    15   ar
    22    15    16    1
    23    15    17   ar
    24    17    18   ar
    25    18    21    1
    26    21    22    1
    27     4     5    1
    28     5    23    1
    29    23    24    1
    30     5     6    1
    31    31    32    1
    32    32    33    1
    33    33    28    1
    34     6     1    1
    35    18    11   ar
    36     7    10    1
    37    16    19    1
    38    16    20    1
@<TRIPOS>MOLECULE
*****
 36 38 0 0 0
SMALL
GASTEIGER

@<TRIPOS>ATOM
      1 N         138.3330  140.2311  162.8888 N.3     1  UNL1       -0.2705
      2 C         137.6530  140.5891  161.6006 C.3     1  UNL1        0.0739
      3 C         138.0552  139.9084  160.3259 C.3     1  UNL1        0.0394
      4 C         139.1374  138.8698  160.3393 C.3     1  UNL1        0.1017
      5 C         139.8174  138.5119  161.6275 C.3     1  UNL1        0.1490
      6 C         139.4152  139.1925  162.9023 C.3     1  UNL1        0.1037
      7 N         139.5395  138.1892  159.0645 N.am    1  UNL1       -0.2999
      8 C         140.7706  138.6347  158.3325 C.2     1  UNL1        0.2488
      9 O         141.5997  139.7608  158.8752 O.2     1  UNL1       -0.2700
     10 H         138.9954  137.4501  158.7083 H       1  UNL1        0.1498
     11 C         141.1727  137.9540  157.0578 C.ar    1  UNL1        0.0882
     12 C         142.5766  137.4547  156.8847 C.ar    1  UNL1        0.0202
     13 C         142.9787  136.7741  155.6099 C.ar    1  UNL1        0.0709
     14 CL        144.3825  136.2748  155.4369 Cl      1  UNL1       -0.0810
     15 C         141.9770  136.5927  154.5082 C.ar    1  UNL1        0.0553
     16 N         142.3791  135.9121  153.2335 N.pl3   1  UNL1       -0.3563
     17 C         140.5732  137.0920  154.6813 C.ar    1  UNL1        0.0520
     18 C         140.1710  137.7727  155.9561 C.ar    1  UNL1        0.1443
     19 H         143.3005  135.5843  153.1199 H       1  UNL1        0.1424
     20 H         141.7216  135.7930  152.5105 H       1  UNL1        0.1424
     21 O         138.7672  138.2719  156.1292 O.3     1  UNL1       -0.4712
     22 C         138.3784  139.6178  155.5929 C.3     1  UNL1        0.2525
     23 O         140.8996  137.4733  161.6409 O.3     1  UNL1       -0.3505
     24 C         142.3375  137.8897  161.7366 C.3     1  UNL1        0.1741
     25 C         137.9309  140.9118  164.1635 C.3     1  UNL1        0.0722
     26 C         141.4719  140.5671  168.9950 C.2     1  UNL1        0.4049
     27 O         141.1709  139.5718  170.0760 O.2     1  UNL1       -0.2262
     28 N         140.5866  140.6533  167.7871 N.am    1  UNL1       -0.2460
     29 C         140.8876  141.6486  166.7061 C.3     1  UNL1        0.0968
     30 C         140.0024  141.7348  165.4982 C.3     1  UNL1        0.0231
     31 C         138.8161  140.8256  165.3714 C.3     1  UNL1        0.0194
     32 C         138.5151  139.8303  166.4524 C.3     1  UNL1        0.0231
     33 C         139.4004  139.7441  167.6603 C.3     1  UNL1        0.0968
     34 O         142.6581  141.4763  169.1218 O.3     1  UNL1       -0.4345
     35 C         141.1572  143.4126  169.9866 C.3     1  UNL1        0.0513
     36 C         142.5161  142.8035  169.8060 C.3     1  UNL1        0.2102
@<TRIPOS>BOND
     1    35    36    1
     2    36    34    1
     3    34    26    1
     4    26    27    2
     5    26    28   am
     6    28    29    1
     7    29    30    1
     8    30    31    1
     9    31    25    1
    10    25     1    1
    11     1     2    1
    12     2     3    1
    13     3     4    1
    14     4     7    1
    15     7     8   am
    16     8     9    2
    17     8    11    1
    18    11    12   ar
    19    12    13   ar
    20    13    14    1
    21    13    15   ar
    22    15    16    1
    23    15    17   ar
    24    17    18   ar
    25    18    21    1
    26    21    22    1
    27     4     5    1
    28     5    23    1
    29    23    24    1
    30     5     6    1
    31    31    32    1
    32    32    33    1
    33    33    28    1
    34     6     1    1
    35    18    11   ar
    36     7    10    1
    37    16    19    1
    38    16    20    1
