@<TRIPOS>MOLECULE
*****
 30 33 0 0 0
SMALL
GASTEIGER

@<TRIPOS>ATOM
      1 C         143.1810  138.5489  159.4912 C.ar    1  UNL1        0.1233
      2 C         142.5222  137.4979  158.6479 C.ar    1  UNL1        0.1179
      3 N         142.8381  137.7911  157.2112 N.ar    1  UNL1       -0.2257
      4 N         143.6922  139.0234  157.1665 N.ar    1  UNL1       -0.0635
      5 N         143.9041  139.4918  158.5757 N.ar    1  UNL1       -0.1287
      6 C         144.1864  139.3986  163.2352 C.ar    1  UNL1        0.1547
      7 C         144.2410  139.3065  161.7391 C.ar    1  UNL1        0.0400
      8 C         143.1264  138.6410  160.9875 C.ar    1  UNL1        0.0241
      9 C         141.9573  138.0677  161.7320 C.ar    1  UNL1        0.0033
     10 C         141.9027  138.1598  163.2281 C.ar    1  UNL1        0.0207
     11 C         143.0173  138.8253  163.9797 C.ar    1  UNL1        0.0994
     12 N         142.9626  138.9174  165.4760 N.ar    1  UNL1       -0.2839
     13 C         143.7718  138.1011  166.4397 C.ar    1  UNL1        0.1826
     14 N         143.3985  138.5212  167.8304 N.ar    1  UNL1       -0.2280
     15 C         142.3585  139.5971  167.7262 C.ar    1  UNL1        0.0786
     16 C         141.7031  140.3041  168.8754 C.3     1  UNL1        0.0538
     17 C         142.0892  139.8420  166.2711 C.ar    1  UNL1        0.0963
     18 C         145.5571  141.5308  163.8051 C.3     1  UNL1        0.2525
     19 O         145.3009  140.0641  163.9868 O.3     1  UNL1       -0.4700
     20 C         142.3803  136.9923  156.0270 C.3     1  UNL1        0.1556
     21 C         142.4618  135.4948  156.0556 C.ar    1  UNL1        0.0021
     22 C         141.4040  134.6730  155.3803 C.ar    1  UNL1       -0.0023
     23 C         141.4855  133.1755  155.4089 C.ar    1  UNL1       -0.0003
     24 C         142.6248  132.4997  156.1127 C.ar    1  UNL1        0.0038
     25 C         143.6825  133.3214  156.7879 C.ar    1  UNL1        0.0712
     26 C         143.6010  134.8189  156.7593 C.ar    1  UNL1        0.0015
     27 C         144.8218  132.6456  157.4918 C.3     1  UNL1        0.4186
     28 F         145.9611  131.9698  158.1956 F       1  UNL1       -0.1659
     29 F         144.5911  133.5103  158.6955 F       1  UNL1       -0.1659
     30 F         145.0526  131.7809  156.2880 F       1  UNL1       -0.1659
@<TRIPOS>BOND
     1    18    19    1
     2    19     6    1
     3     6     7   ar
     4     7     8   ar
     5     8     1    1
     6     1     2   ar
     7     2     3   ar
     8     3    20    1
     9    20    21    1
    10    21    22   ar
    11    22    23   ar
    12    23    24   ar
    13    24    25   ar
    14    25    27    1
    15    27    28    1
    16    27    29    1
    17    27    30    1
    18    25    26   ar
    19     3     4   ar
    20     4     5   ar
    21     8     9   ar
    22     9    10   ar
    23    10    11   ar
    24    11    12    1
    25    12    13   ar
    26    13    14   ar
    27    14    15   ar
    28    15    16    1
    29    15    17   ar
    30    11     6   ar
    31    17    12   ar
    32     5     1   ar
    33    26    21   ar
@<TRIPOS>MOLECULE
*****
 30 33 0 0 0
SMALL
GASTEIGER

@<TRIPOS>ATOM
      1 C         143.2229  138.5715  159.3564 C.ar    1  UNL1        0.1233
      2 C         142.6129  137.4877  158.5178 C.ar    1  UNL1        0.1179
      3 N         142.9308  137.7790  157.0811 N.ar    1  UNL1       -0.2257
      4 N         143.7373  139.0429  157.0318 N.ar    1  UNL1       -0.0635
      5 N         143.9178  139.5326  158.4380 N.ar    1  UNL1       -0.1287
      6 C         142.0434  138.0021  163.1027 C.ar    1  UNL1        0.1547
      7 C         142.1156  137.8977  161.6081 C.ar    1  UNL1        0.0400
      8 C         143.1507  138.6758  160.8511 C.ar    1  UNL1        0.0241
      9 C         144.1137  139.5582  161.5887 C.ar    1  UNL1        0.0033
     10 C         144.0414  139.6625  163.0833 C.ar    1  UNL1        0.0207
     11 C         143.0063  138.8845  163.8403 C.ar    1  UNL1        0.0994
     12 N         142.9341  138.9888  165.3350 N.ar    1  UNL1       -0.2839
     13 C         143.7217  138.1707  166.3150 C.ar    1  UNL1        0.1826
     14 N         143.3360  138.6059  167.6977 N.ar    1  UNL1       -0.2280
     15 C         142.3100  139.6930  167.5722 C.ar    1  UNL1        0.0786
     16 C         141.6485  140.4164  168.7076 C.3     1  UNL1        0.0538
     17 C         142.0617  139.9296  166.1120 C.ar    1  UNL1        0.0963
     18 C         139.5551  137.5637  163.7081 C.3     1  UNL1        0.2525
     19 O         141.0082  137.2240  163.8597 O.3     1  UNL1       -0.4700
     20 C         142.5151  136.9518  155.9008 C.3     1  UNL1        0.1556
     21 C         142.5493  135.4546  155.9850 C.ar    1  UNL1        0.0021
     22 C         141.4618  134.6425  155.3460 C.ar    1  UNL1       -0.0023
     23 C         141.4960  133.1452  155.4302 C.ar    1  UNL1       -0.0003
     24 C         142.6175  132.4601  156.1533 C.ar    1  UNL1        0.0038
     25 C         143.7048  133.2721  156.7922 C.ar    1  UNL1        0.0712
     26 C         143.6706  134.7693  156.7081 C.ar    1  UNL1        0.0015
     27 C         144.8263  132.5869  157.5153 C.3     1  UNL1        0.4186
     28 F         145.9477  131.9017  158.2384 F       1  UNL1       -0.1659
     29 F         145.0336  131.6824  156.3368 F       1  UNL1       -0.1659
     30 F         144.6189  133.4914  158.6939 F       1  UNL1       -0.1659
@<TRIPOS>BOND
     1    18    19    1
     2    19     6    1
     3     6     7   ar
     4     7     8   ar
     5     8     1    1
     6     1     2   ar
     7     2     3   ar
     8     3    20    1
     9    20    21    1
    10    21    22   ar
    11    22    23   ar
    12    23    24   ar
    13    24    25   ar
    14    25    27    1
    15    27    28    1
    16    27    29    1
    17    27    30    1
    18    25    26   ar
    19     3     4   ar
    20     4     5   ar
    21     8     9   ar
    22     9    10   ar
    23    10    11   ar
    24    11    12    1
    25    12    13   ar
    26    13    14   ar
    27    14    15   ar
    28    15    16    1
    29    15    17   ar
    30    11     6   ar
    31    17    12   ar
    32     5     1   ar
    33    26    21   ar
@<TRIPOS>MOLECULE
*****
 30 33 0 0 0
SMALL
GASTEIGER

@<TRIPOS>ATOM
      1 C         139.6483  138.7868  159.7042 C.ar    1  UNL1        0.1233
      2 C         140.8412  138.2004  159.0093 C.ar    1  UNL1        0.1179
      3 N         140.6151  138.3073  157.5303 N.ar    1  UNL1       -0.2257
      4 N         139.2823  138.9599  157.3111 N.ar    1  UNL1       -0.0635
      5 N         138.6848  139.2562  158.6547 N.ar    1  UNL1       -0.1287
      6 C         140.1916  138.2685  163.6012 C.ar    1  UNL1        0.1547
      7 C         140.3869  138.1690  162.1173 C.ar    1  UNL1        0.0400
      8 C         139.4530  138.8863  161.1882 C.ar    1  UNL1        0.0241
      9 C         138.3239  139.7031  161.7429 C.ar    1  UNL1        0.0033
     10 C         138.1286  139.8027  163.2268 C.ar    1  UNL1        0.0207
     11 C         139.0625  139.0853  164.1559 C.ar    1  UNL1        0.0994
     12 N         138.8672  139.1849  165.6399 N.ar    1  UNL1       -0.2839
     13 C         137.8546  138.4294  166.4485 C.ar    1  UNL1        0.1826
     14 N         138.0119  138.8350  167.8841 N.ar    1  UNL1       -0.2280
     15 C         139.1216  139.8412  167.9626 C.ar    1  UNL1        0.0786
     16 C         139.6159  140.5131  169.2093 C.3     1  UNL1        0.0538
     17 C         139.6502  140.0574  166.5756 C.ar    1  UNL1        0.0963
     18 C         142.4059  138.2045  164.9586 C.3     1  UNL1        0.2525
     19 O         141.1255  137.5511  164.5303 O.3     1  UNL1       -0.4700
     20 C         141.5564  137.8433  156.4586 C.3     1  UNL1        0.1556
     21 C         141.8122  136.3776  156.2682 C.ar    1  UNL1        0.0021
     22 C         140.9965  135.5959  155.2812 C.ar    1  UNL1       -0.0023
     23 C         141.2523  134.1302  155.0908 C.ar    1  UNL1       -0.0003
     24 C         142.3236  133.4461  155.8872 C.ar    1  UNL1        0.0038
     25 C         143.1392  134.2277  156.8740 C.ar    1  UNL1        0.0712
     26 C         142.8835  135.6934  157.0645 C.ar    1  UNL1        0.0015
     27 C         144.2106  133.5436  157.6704 C.3     1  UNL1        0.4186
     28 F         145.2819  132.8595  158.4668 F       1  UNL1       -0.1659
     29 F         144.6821  132.8406  156.4321 F       1  UNL1       -0.1659
     30 F         143.7390  134.2467  158.9087 F       1  UNL1       -0.1659
@<TRIPOS>BOND
     1    18    19    1
     2    19     6    1
     3     6     7   ar
     4     7     8   ar
     5     8     1    1
     6     1     2   ar
     7     2     3   ar
     8     3    20    1
     9    20    21    1
    10    21    22   ar
    11    22    23   ar
    12    23    24   ar
    13    24    25   ar
    14    25    27    1
    15    27    28    1
    16    27    29    1
    17    27    30    1
    18    25    26   ar
    19     3     4   ar
    20     4     5   ar
    21     8     9   ar
    22     9    10   ar
    23    10    11   ar
    24    11    12    1
    25    12    13   ar
    26    13    14   ar
    27    14    15   ar
    28    15    16    1
    29    15    17   ar
    30    11     6   ar
    31    17    12   ar
    32     5     1   ar
    33    26    21   ar
@<TRIPOS>MOLECULE
*****
 30 33 0 0 0
SMALL
GASTEIGER

@<TRIPOS>ATOM
      1 C         139.7229  138.7439  159.6479 C.ar    1  UNL1        0.1233
      2 C         140.9033  138.1409  158.9458 C.ar    1  UNL1        0.1179
      3 N         140.6618  138.2354  157.4684 N.ar    1  UNL1       -0.2257
      4 N         139.3321  138.8970  157.2574 N.ar    1  UNL1       -0.0635
      5 N         138.7519  139.2112  158.6044 N.ar    1  UNL1       -0.1287
      6 C         138.3860  139.9605  163.1810 C.ar    1  UNL1        0.1547
      7 C         138.5642  139.8449  161.6962 C.ar    1  UNL1        0.0400
      8 C         139.5447  138.8594  161.1329 C.ar    1  UNL1        0.0241
      9 C         140.3471  137.9894  162.0544 C.ar    1  UNL1        0.0033
     10 C         140.1689  138.1049  163.5393 C.ar    1  UNL1        0.0207
     11 C         139.1884  139.0905  164.1026 C.ar    1  UNL1        0.0994
     12 N         139.0102  139.2060  165.5875 N.ar    1  UNL1       -0.2839
     13 C         137.9068  138.5877  166.3939 C.ar    1  UNL1        0.1826
     14 N         138.1189  138.9596  167.8315 N.ar    1  UNL1       -0.2280
     15 C         139.3534  139.8078  167.9136 C.ar    1  UNL1        0.0786
     16 C         139.9348  140.3998  169.1632 C.3     1  UNL1        0.0538
     17 C         139.9042  139.9600  166.5268 C.ar    1  UNL1        0.0963
     18 C         137.8747  142.2988  164.1912 C.3     1  UNL1        0.2525
     19 O         137.4055  140.9460  163.7443 O.3     1  UNL1       -0.4700
     20 C         141.5875  137.7532  156.3910 C.3     1  UNL1        0.1556
     21 C         141.8454  136.2848  156.2256 C.ar    1  UNL1        0.0021
     22 C         141.0281  135.4844  155.2552 C.ar    1  UNL1       -0.0023
     23 C         141.2860  134.0161  155.0898 C.ar    1  UNL1       -0.0003
     24 C         142.3611  133.3480  155.8948 C.ar    1  UNL1        0.0038
     25 C         143.1782  134.1484  156.8652 C.ar    1  UNL1        0.0712
     26 C         142.9203  135.6167  157.0305 C.ar    1  UNL1        0.0015
     27 C         144.2533  133.4803  157.6701 C.3     1  UNL1        0.4186
     28 F         145.3284  132.8123  158.4751 F       1  UNL1       -0.1659
     29 F         143.8024  134.2260  158.8911 F       1  UNL1       -0.1659
     30 F         144.7042  132.7346  156.4492 F       1  UNL1       -0.1659
@<TRIPOS>BOND
     1    18    19    1
     2    19     6    1
     3     6     7   ar
     4     7     8   ar
     5     8     1    1
     6     1     2   ar
     7     2     3   ar
     8     3    20    1
     9    20    21    1
    10    21    22   ar
    11    22    23   ar
    12    23    24   ar
    13    24    25   ar
    14    25    27    1
    15    27    28    1
    16    27    29    1
    17    27    30    1
    18    25    26   ar
    19     3     4   ar
    20     4     5   ar
    21     8     9   ar
    22     9    10   ar
    23    10    11   ar
    24    11    12    1
    25    12    13   ar
    26    13    14   ar
    27    14    15   ar
    28    15    16    1
    29    15    17   ar
    30    11     6   ar
    31    17    12   ar
    32     5     1   ar
    33    26    21   ar
@<TRIPOS>MOLECULE
*****
 30 33 0 0 0
SMALL
GASTEIGER

@<TRIPOS>ATOM
      1 C         140.3257  143.3622  160.8923 C.ar    1  UNL1        0.1233
      2 C         139.7760  142.4486  161.9472 C.ar    1  UNL1        0.1179
      3 N         138.6955  143.1857  162.6816 N.ar    1  UNL1       -0.2257
      4 N         138.5774  144.5549  162.0804 N.ar    1  UNL1       -0.0635
      5 N         139.5850  144.6640  160.9746 N.ar    1  UNL1       -0.1287
      6 C         143.1810  141.3556  159.0026 C.ar    1  UNL1        0.1547
      7 C         142.0833  141.6858  159.9700 C.ar    1  UNL1        0.0400
      8 C         141.4235  143.0321  159.9248 C.ar    1  UNL1        0.0241
      9 C         141.8615  144.0483  158.9122 C.ar    1  UNL1        0.0033
     10 C         142.9592  143.7182  157.9447 C.ar    1  UNL1        0.0207
     11 C         143.6190  142.3719  157.9900 C.ar    1  UNL1        0.0994
     12 N         144.7168  142.0417  157.0225 N.ar    1  UNL1       -0.2839
     13 C         144.5514  141.3395  155.7074 C.ar    1  UNL1        0.1826
     14 N         145.9051  141.2197  155.0724 N.ar    1  UNL1       -0.2280
     15 C         146.9072  141.8479  155.9951 C.ar    1  UNL1        0.0786
     16 C         148.3842  141.9501  155.7548 C.3     1  UNL1        0.0538
     17 C         146.1727  142.3559  157.2003 C.ar    1  UNL1        0.0963
     18 C         144.0169  139.3040  160.3598 C.3     1  UNL1        0.2525
     19 O         143.8408  140.0093  159.0478 O.3     1  UNL1       -0.4700
     20 C         137.8767  142.6479  163.8176 C.3     1  UNL1        0.1556
     21 C         138.5166  141.7744  164.8556 C.ar    1  UNL1        0.0021
     22 C         139.6578  142.2981  165.6765 C.ar    1  UNL1       -0.0023
     23 C         140.2977  141.4246  166.7146 C.ar    1  UNL1       -0.0003
     24 C         139.7965  140.0275  166.9317 C.ar    1  UNL1        0.0038
     25 C         138.6554  139.5040  166.1109 C.ar    1  UNL1        0.0712
     26 C         138.0155  140.3775  165.0729 C.ar    1  UNL1        0.0015
     27 C         138.1543  138.1070  166.3281 C.3     1  UNL1        0.4186
     28 F         137.6531  136.7099  166.5453 F       1  UNL1       -0.1659
     29 F         137.1983  138.6116  167.3680 F       1  UNL1       -0.1659
     30 F         139.1102  137.6023  165.2882 F       1  UNL1       -0.1659
@<TRIPOS>BOND
     1    18    19    1
     2    19     6    1
     3     6     7   ar
     4     7     8   ar
     5     8     1    1
     6     1     2   ar
     7     2     3   ar
     8     3    20    1
     9    20    21    1
    10    21    22   ar
    11    22    23   ar
    12    23    24   ar
    13    24    25   ar
    14    25    27    1
    15    27    28    1
    16    27    29    1
    17    27    30    1
    18    25    26   ar
    19     3     4   ar
    20     4     5   ar
    21     8     9   ar
    22     9    10   ar
    23    10    11   ar
    24    11    12    1
    25    12    13   ar
    26    13    14   ar
    27    14    15   ar
    28    15    16    1
    29    15    17   ar
    30    11     6   ar
    31    17    12   ar
    32     5     1   ar
    33    26    21   ar
@<TRIPOS>MOLECULE
*****
 30 33 0 0 0
SMALL
GASTEIGER

@<TRIPOS>ATOM
      1 C         142.2085  138.1052  158.2475 C.ar    1  UNL1        0.1233
      2 C         141.7297  137.1322  157.2111 C.ar    1  UNL1        0.1179
      3 N         142.7032  137.1539  156.0701 N.ar    1  UNL1       -0.2257
      4 N         143.7837  138.1404  156.4013 N.ar    1  UNL1       -0.0635
      5 N         143.4778  138.7283  157.7470 N.ar    1  UNL1       -0.1287
      6 C         141.6056  138.5002  162.1501 C.ar    1  UNL1        0.1547
      7 C         142.2781  138.2025  160.8428 C.ar    1  UNL1        0.0400
      8 C         141.5359  138.4029  159.5548 C.ar    1  UNL1        0.0241
      9 C         140.1212  138.9010  159.5741 C.ar    1  UNL1        0.0033
     10 C         139.4487  139.1987  160.8814 C.ar    1  UNL1        0.0207
     11 C         140.1909  138.9983  162.1694 C.ar    1  UNL1        0.0994
     12 N         139.5184  139.2960  163.4768 N.ar    1  UNL1       -0.2839
     13 C         139.2725  140.6596  164.0514 C.ar    1  UNL1        0.1826
     14 N         138.5758  140.4887  165.3688 N.ar    1  UNL1       -0.2280
     15 C         138.3911  139.0194  165.6083 C.ar    1  UNL1        0.0786
     16 C         137.7384  138.3967  166.8067 C.3     1  UNL1        0.0538
     17 C         138.9736  138.2824  164.4390 C.ar    1  UNL1        0.0963
     18 C         143.6878  138.9432  163.6395 C.3     1  UNL1        0.2525
     19 O         142.3479  138.2998  163.4381 O.3     1  UNL1       -0.4700
     20 C         142.6123  136.3332  154.8178 C.3     1  UNL1        0.1556
     21 C         142.9181  134.8653  154.8592 C.ar    1  UNL1        0.0021
     22 C         142.3679  133.9545  153.8018 C.ar    1  UNL1       -0.0023
     23 C         142.6737  132.4866  153.8432 C.ar    1  UNL1       -0.0003
     24 C         143.5297  131.9295  154.9418 C.ar    1  UNL1        0.0038
     25 C         144.0798  132.8403  155.9991 C.ar    1  UNL1        0.0712
     26 C         143.7740  134.3082  155.9577 C.ar    1  UNL1        0.0015
     27 C         144.9358  132.2831  157.0977 C.3     1  UNL1        0.4186
     28 F         145.7917  131.7260  158.1963 F       1  UNL1       -0.1659
     29 F         145.2859  131.1105  156.2302 F       1  UNL1       -0.1659
     30 F         144.5856  133.4557  157.9651 F       1  UNL1       -0.1659
@<TRIPOS>BOND
     1    18    19    1
     2    19     6    1
     3     6     7   ar
     4     7     8   ar
     5     8     1    1
     6     1     2   ar
     7     2     3   ar
     8     3    20    1
     9    20    21    1
    10    21    22   ar
    11    22    23   ar
    12    23    24   ar
    13    24    25   ar
    14    25    27    1
    15    27    28    1
    16    27    29    1
    17    27    30    1
    18    25    26   ar
    19     3     4   ar
    20     4     5   ar
    21     8     9   ar
    22     9    10   ar
    23    10    11   ar
    24    11    12    1
    25    12    13   ar
    26    13    14   ar
    27    14    15   ar
    28    15    16    1
    29    15    17   ar
    30    11     6   ar
    31    17    12   ar
    32     5     1   ar
    33    26    21   ar
@<TRIPOS>MOLECULE
*****
 30 33 0 0 0
SMALL
GASTEIGER

@<TRIPOS>ATOM
      1 C         139.3105  141.1405  160.1775 C.ar    1  UNL1        0.1233
      2 C         139.0698  140.9930  161.6507 C.ar    1  UNL1        0.1179
      3 N         138.2830  142.1833  162.1133 N.ar    1  UNL1       -0.2257
      4 N         138.0373  143.0665  160.9260 N.ar    1  UNL1       -0.0635
      5 N         138.6723  142.4220  159.7296 N.ar    1  UNL1       -0.1287
      6 C         141.8752  138.3406  159.0230 C.ar    1  UNL1        0.1547
      7 C         141.1276  139.3052  159.8951 C.ar    1  UNL1        0.0400
      8 C         140.0580  140.1759  159.3053 C.ar    1  UNL1        0.0241
      9 C         139.7359  140.0819  157.8433 C.ar    1  UNL1        0.0033
     10 C         140.4835  139.1173  156.9712 C.ar    1  UNL1        0.0207
     11 C         141.5531  138.2467  157.5610 C.ar    1  UNL1        0.0994
     12 N         142.3007  137.2820  156.6888 N.ar    1  UNL1       -0.2839
     13 C         143.6540  137.5079  156.0825 C.ar    1  UNL1        0.1826
     14 N         144.0158  136.2877  155.2888 N.ar    1  UNL1       -0.2280
     15 C         142.8861  135.3076  155.4044 C.ar    1  UNL1        0.0786
     16 C         142.8268  133.9512  154.7667 C.3     1  UNL1        0.0538
     17 C         141.8261  135.9222  156.2696 C.ar    1  UNL1        0.0963
     18 C         143.5615  137.8292  160.9321 C.3     1  UNL1        0.2525
     19 O         142.9448  137.4700  159.6128 O.3     1  UNL1       -0.4700
     20 C         137.8226  142.4446  163.5168 C.3     1  UNL1        0.1556
     21 C         138.4204  141.6757  164.6577 C.ar    1  UNL1        0.0021
     22 C         139.4959  142.2970  165.4989 C.ar    1  UNL1       -0.0023
     23 C         140.0937  141.5282  166.6397 C.ar    1  UNL1       -0.0003
     24 C         139.6162  140.1382  166.9393 C.ar    1  UNL1        0.0038
     25 C         138.5407  139.5170  166.0982 C.ar    1  UNL1        0.0712
     26 C         137.9429  140.2858  164.9574 C.ar    1  UNL1        0.0015
     27 C         138.0632  138.1270  166.3978 C.3     1  UNL1        0.4186
     28 F         137.5856  136.7369  166.6975 F       1  UNL1       -0.1659
     29 F         138.8449  137.6062  165.2283 F       1  UNL1       -0.1659
     30 F         137.2814  138.6477  167.5673 F       1  UNL1       -0.1659
@<TRIPOS>BOND
     1    18    19    1
     2    19     6    1
     3     6     7   ar
     4     7     8   ar
     5     8     1    1
     6     1     2   ar
     7     2     3   ar
     8     3    20    1
     9    20    21    1
    10    21    22   ar
    11    22    23   ar
    12    23    24   ar
    13    24    25   ar
    14    25    27    1
    15    27    28    1
    16    27    29    1
    17    27    30    1
    18    25    26   ar
    19     3     4   ar
    20     4     5   ar
    21     8     9   ar
    22     9    10   ar
    23    10    11   ar
    24    11    12    1
    25    12    13   ar
    26    13    14   ar
    27    14    15   ar
    28    15    16    1
    29    15    17   ar
    30    11     6   ar
    31    17    12   ar
    32     5     1   ar
    33    26    21   ar
@<TRIPOS>MOLECULE
*****
 30 33 0 0 0
SMALL
GASTEIGER

@<TRIPOS>ATOM
      1 C         141.6553  138.3260  160.4003 C.ar    1  UNL1        0.1233
      2 C         142.6835  137.6221  159.5652 C.ar    1  UNL1        0.1179
      3 N         142.2029  137.6178  158.1443 N.ar    1  UNL1       -0.2257
      4 N         140.8776  138.3191  158.1012 N.ar    1  UNL1       -0.0635
      5 N         140.5392  138.7568  159.4954 N.ar    1  UNL1       -0.1287
      6 C         142.2424  140.1246  163.8889 C.ar    1  UNL1        0.1547
      7 C         142.1676  139.8922  162.4089 C.ar    1  UNL1        0.0400
      8 C         141.7301  138.5584  161.8803 C.ar    1  UNL1        0.0241
      9 C         141.3674  137.4569  162.8317 C.ar    1  UNL1        0.0033
     10 C         141.4421  137.6893  164.3117 C.ar    1  UNL1        0.0207
     11 C         141.8796  139.0232  164.8403 C.ar    1  UNL1        0.0994
     12 N         141.9544  139.2555  166.3203 N.ar    1  UNL1       -0.2839
     13 C         143.1142  138.9157  167.2087 C.ar    1  UNL1        0.1826
     14 N         142.7591  139.3186  168.6092 N.ar    1  UNL1       -0.2280
     15 C         141.3797  139.9076  168.5864 C.ar    1  UNL1        0.0786
     16 C         140.6294  140.4417  169.7703 C.3     1  UNL1        0.0538
     17 C         140.8824  139.8686  167.1718 C.ar    1  UNL1        0.0963
     18 C         141.6978  142.5888  164.5063 C.3     1  UNL1        0.2525
     19 O         142.6799  141.4585  164.4175 O.3     1  UNL1       -0.4700
     20 C         142.9214  137.0177  156.9723 C.3     1  UNL1        0.1556
     21 C         142.7325  135.5673  156.6393 C.ar    1  UNL1        0.0021
     22 C         141.6668  135.1535  155.6681 C.ar    1  UNL1       -0.0023
     23 C         141.4779  133.7032  155.3350 C.ar    1  UNL1       -0.0003
     24 C         142.3546  132.6667  155.9732 C.ar    1  UNL1        0.0038
     25 C         143.4202  133.0806  156.9443 C.ar    1  UNL1        0.0712
     26 C         143.6091  134.5309  157.2774 C.ar    1  UNL1        0.0015
     27 C         144.2970  132.0442  157.5825 C.3     1  UNL1        0.4186
     28 F         145.1737  131.0078  158.2206 F       1  UNL1       -0.1659
     29 F         143.5588  130.9661  156.8457 F       1  UNL1       -0.1659
     30 F         145.0352  133.1223  158.3193 F       1  UNL1       -0.1659
@<TRIPOS>BOND
     1    18    19    1
     2    19     6    1
     3     6     7   ar
     4     7     8   ar
     5     8     1    1
     6     1     2   ar
     7     2     3   ar
     8     3    20    1
     9    20    21    1
    10    21    22   ar
    11    22    23   ar
    12    23    24   ar
    13    24    25   ar
    14    25    27    1
    15    27    28    1
    16    27    29    1
    17    27    30    1
    18    25    26   ar
    19     3     4   ar
    20     4     5   ar
    21     8     9   ar
    22     9    10   ar
    23    10    11   ar
    24    11    12    1
    25    12    13   ar
    26    13    14   ar
    27    14    15   ar
    28    15    16    1
    29    15    17   ar
    30    11     6   ar
    31    17    12   ar
    32     5     1   ar
    33    26    21   ar
@<TRIPOS>MOLECULE
*****
 30 33 0 0 0
SMALL
GASTEIGER

@<TRIPOS>ATOM
      1 C         140.5352  144.3960  160.7614 C.ar    1  UNL1        0.1233
      2 C         140.1019  143.7440  162.0409 C.ar    1  UNL1        0.1179
      3 N         139.0690  144.6225  162.6822 N.ar    1  UNL1       -0.2257
      4 N         138.8638  145.8175  161.7991 N.ar    1  UNL1       -0.0635
      5 N         139.7700  145.6775  160.6119 N.ar    1  UNL1       -0.1287
      6 C         143.3485  142.0865  159.1797 C.ar    1  UNL1        0.1547
      7 C         142.3291  142.6220  160.1409 C.ar    1  UNL1        0.0400
      8 C         141.5547  143.8606  159.8001 C.ar    1  UNL1        0.0241
      9 C         141.7997  144.5637  158.4980 C.ar    1  UNL1        0.0033
     10 C         142.8191  144.0283  157.5368 C.ar    1  UNL1        0.0207
     11 C         143.5935  142.7897  157.8776 C.ar    1  UNL1        0.0994
     12 N         144.6130  142.2543  156.9163 N.ar    1  UNL1       -0.2839
     13 C         144.3273  141.4258  155.6989 C.ar    1  UNL1        0.1826
     14 N         145.6348  141.1129  155.0338 N.ar    1  UNL1       -0.2280
     15 C         146.7287  141.7479  155.8402 C.ar    1  UNL1        0.0786
     16 C         148.1964  141.6881  155.5365 C.3     1  UNL1        0.0538
     17 C         146.0972  142.4533  157.0036 C.ar    1  UNL1        0.0963
     18 C         143.4571  139.5054  159.4552 C.3     1  UNL1        0.2525
     19 O         144.1229  140.8479  159.5205 O.3     1  UNL1       -0.4700
     20 C         138.3648  144.3532  163.9790 C.3     1  UNL1        0.1556
     21 C         138.8061  143.2143  164.8497 C.ar    1  UNL1        0.0021
     22 C         138.2846  141.8308  164.5963 C.ar    1  UNL1       -0.0023
     23 C         138.7258  140.6918  165.4670 C.ar    1  UNL1       -0.0003
     24 C         139.6885  140.9363  166.5911 C.ar    1  UNL1        0.0038
     25 C         140.2099  142.3198  166.8445 C.ar    1  UNL1        0.0712
     26 C         139.7687  143.4587  165.9738 C.ar    1  UNL1        0.0015
     27 C         141.1726  142.5642  167.9685 C.3     1  UNL1        0.4186
     28 F         142.1353  142.8087  169.0926 F       1  UNL1       -0.1659
     29 F         142.0967  141.5270  167.4027 F       1  UNL1       -0.1659
     30 F         140.2485  143.6015  168.5343 F       1  UNL1       -0.1659
@<TRIPOS>BOND
     1    18    19    1
     2    19     6    1
     3     6     7   ar
     4     7     8   ar
     5     8     1    1
     6     1     2   ar
     7     2     3   ar
     8     3    20    1
     9    20    21    1
    10    21    22   ar
    11    22    23   ar
    12    23    24   ar
    13    24    25   ar
    14    25    27    1
    15    27    28    1
    16    27    29    1
    17    27    30    1
    18    25    26   ar
    19     3     4   ar
    20     4     5   ar
    21     8     9   ar
    22     9    10   ar
    23    10    11   ar
    24    11    12    1
    25    12    13   ar
    26    13    14   ar
    27    14    15   ar
    28    15    16    1
    29    15    17   ar
    30    11     6   ar
    31    17    12   ar
    32     5     1   ar
    33    26    21   ar
