@<TRIPOS>MOLECULE
*****
 20 23 0 0 0
SMALL
GASTEIGER

@<TRIPOS>ATOM
      1 N         139.9007  144.8877  170.2420 N.pl3   1  UNL1       -0.3133
      2 C         140.5671  143.5697  169.9797 C.2     1  UNL1        0.2770
      3 N         140.6621  142.8786  168.6518 N.2     1  UNL1       -0.2204
      4 C         141.4093  141.5932  168.8508 C.3     1  UNL1        0.1537
      5 C         141.7759  141.4899  170.3016 C.3     1  UNL1        0.2350
      6 O         141.2555  142.7114  170.9993 O.2     1  UNL1       -0.4478
      7 C         140.9749  141.8337  167.4353 C.ar    1  UNL1        0.0360
      8 C         140.2170  143.0798  167.0848 C.ar    1  UNL1        0.0073
      9 C         139.7827  143.3203  165.6693 C.ar    1  UNL1        0.0345
     10 BR        139.0248  144.5664  165.3188 Br      1  UNL1       -0.0490
     11 C         140.1063  142.3148  164.6043 C.ar    1  UNL1        0.0098
     12 C         140.8643  141.0687  164.9549 C.ar    1  UNL1        0.0371
     13 C         141.2985  140.8282  166.3703 C.ar    1  UNL1        0.1364
     14 O         142.0565  139.5820  166.7209 O.3     1  UNL1       -0.4756
     15 C         142.4907  139.3415  168.1363 C.3     1  UNL1        0.2074
     16 C         142.1671  140.3471  169.2013 C.3     1  UNL1        0.0666
     17 C         142.2311  140.7888  170.6333 C.3     1  UNL1        0.0061
     18 C         142.8555  139.4888  170.2208 C.3     1  UNL1        0.0061
     19 H         139.4736  145.3790  169.5035 H       1  UNL1        0.1466
     20 H         139.8904  145.2615  171.1528 H       1  UNL1        0.1466
@<TRIPOS>BOND
     1     1     2    1
     2     2     3    2
     3     3     4    1
     4     4     5    1
     5     5     6    1
     6     4     7    1
     7     7     8   ar
     8     8     9   ar
     9     9    10    1
    10     9    11   ar
    11    11    12   ar
    12    12    13   ar
    13    13    14    1
    14    14    15    1
    15    15    16    1
    16    16    17    1
    17    17    18    1
    18     6     2    1
    19    13     7   ar
    20    18    16    1
    21    16     4    1
    22     1    19    1
    23     1    20    1
@<TRIPOS>MOLECULE
*****
 20 23 0 0 0
SMALL
GASTEIGER

@<TRIPOS>ATOM
      1 N         137.8083  139.6784  170.4360 N.pl3   1  UNL1       -0.3133
      2 C         139.0960  140.3984  170.1645 C.2     1  UNL1        0.2770
      3 N         139.8478  140.4011  168.8666 N.2     1  UNL1       -0.2204
      4 C         141.0744  141.2464  169.0433 C.3     1  UNL1        0.1537
      5 C         141.0805  141.7659  170.4504 C.3     1  UNL1        0.2350
      6 O         139.8578  141.2419  171.1433 O.2     1  UNL1       -0.4478
      7 C         140.9336  140.6543  167.6722 C.ar    1  UNL1        0.0360
      8 C         139.7548  139.7854  167.3479 C.ar    1  UNL1        0.0073
      9 C         139.6141  139.1934  165.9768 C.ar    1  UNL1        0.0345
     10 BR        138.4353  138.3244  165.6525 Br      1  UNL1       -0.0490
     11 C         140.6522  139.4704  164.9301 C.ar    1  UNL1        0.0098
     12 C         141.8311  140.3394  165.2545 C.ar    1  UNL1        0.0371
     13 C         141.9718  140.9314  166.6255 C.ar    1  UNL1        0.1364
     14 O         143.1506  141.8004  166.9499 O.3     1  UNL1       -0.4756
     15 C         143.2913  142.3923  168.3209 C.3     1  UNL1        0.2074
     16 C         142.2532  142.1153  169.3676 C.3     1  UNL1        0.0666
     17 C         141.7351  142.2972  170.7635 C.3     1  UNL1        0.0061
     18 C         143.0150  142.9588  170.3464 C.3     1  UNL1        0.0061
     19 H         137.3822  139.1469  169.7253 H       1  UNL1        0.1466
     20 H         137.3892  139.7375  171.3249 H       1  UNL1        0.1466
@<TRIPOS>BOND
     1     1     2    1
     2     2     3    2
     3     3     4    1
     4     4     5    1
     5     5     6    1
     6     4     7    1
     7     7     8   ar
     8     8     9   ar
     9     9    10    1
    10     9    11   ar
    11    11    12   ar
    12    12    13   ar
    13    13    14    1
    14    14    15    1
    15    15    16    1
    16    16    17    1
    17    17    18    1
    18     6     2    1
    19    13     7   ar
    20    18    16    1
    21    16     4    1
    22     1    19    1
    23     1    20    1
@<TRIPOS>MOLECULE
*****
 20 23 0 0 0
SMALL
GASTEIGER

@<TRIPOS>ATOM
      1 N         138.1746  140.0556  170.4351 N.pl3   1  UNL1       -0.3133
      2 C         138.5357  139.7511  169.0113 C.2     1  UNL1        0.2770
      3 N         139.7269  140.2828  168.2709 N.2     1  UNL1       -0.2204
      4 C         139.6964  139.7218  166.8800 C.3     1  UNL1        0.1537
      5 C         138.4863  138.8434  166.7610 C.3     1  UNL1        0.2350
      6 O         137.7690  138.8615  168.0782 O.2     1  UNL1       -0.4478
      7 C         140.8621  140.6272  167.1472 C.ar    1  UNL1        0.0360
      8 C         141.0244  141.2626  168.4962 C.ar    1  UNL1        0.0073
      9 C         142.1901  142.1681  168.7635 C.ar    1  UNL1        0.0345
     10 BR        142.3524  142.8035  170.1125 Br      1  UNL1       -0.0490
     11 C         143.1935  142.4381  167.6816 C.ar    1  UNL1        0.0098
     12 C         143.0311  141.8026  166.3326 C.ar    1  UNL1        0.0371
     13 C         141.8655  140.8972  166.0654 C.ar    1  UNL1        0.1364
     14 O         141.7031  140.2617  164.7163 O.3     1  UNL1       -0.4756
     15 C         140.5374  139.3563  164.4492 C.3     1  UNL1        0.2074
     16 C         139.5341  139.0863  165.5310 C.3     1  UNL1        0.0666
     17 C         138.2818  138.4077  166.0013 C.3     1  UNL1        0.0061
     18 C         138.7673  138.1967  164.5979 C.3     1  UNL1        0.0061
     19 H         138.7439  140.6548  170.9699 H       1  UNL1        0.1466
     20 H         137.3683  139.6563  170.8346 H       1  UNL1        0.1466
@<TRIPOS>BOND
     1     1     2    1
     2     2     3    2
     3     3     4    1
     4     4     5    1
     5     5     6    1
     6     4     7    1
     7     7     8   ar
     8     8     9   ar
     9     9    10    1
    10     9    11   ar
    11    11    12   ar
    12    12    13   ar
    13    13    14    1
    14    14    15    1
    15    15    16    1
    16    16    17    1
    17    17    18    1
    18     6     2    1
    19    13     7   ar
    20    18    16    1
    21    16     4    1
    22     1    19    1
    23     1    20    1
@<TRIPOS>MOLECULE
*****
 20 23 0 0 0
SMALL
GASTEIGER

@<TRIPOS>ATOM
      1 N         137.3500  139.1927  161.7090 N.pl3   1  UNL1       -0.3133
      2 C         137.7267  140.3649  162.5659 C.2     1  UNL1        0.2770
      3 N         138.8203  140.3914  163.5921 N.2     1  UNL1       -0.2204
      4 C         138.8453  141.7593  164.2074 C.3     1  UNL1        0.1537
      5 C         137.7671  142.5779  163.5614 C.3     1  UNL1        0.2350
      6 O         137.0758  141.7162  162.5469 O.2     1  UNL1       -0.4478
      7 C         139.8782  140.8225  164.7603 C.ar    1  UNL1        0.0360
      8 C         139.9727  139.4187  164.2403 C.ar    1  UNL1        0.0073
      9 C         141.0056  138.4820  164.7932 C.ar    1  UNL1        0.0345
     10 BR        141.1000  137.0782  164.2732 Br      1  UNL1       -0.0490
     11 C         141.9440  138.9491  165.8661 C.ar    1  UNL1        0.0098
     12 C         141.8496  140.3529  166.3861 C.ar    1  UNL1        0.0371
     13 C         140.8167  141.2896  165.8332 C.ar    1  UNL1        0.1364
     14 O         140.7222  142.6935  166.3532 O.3     1  UNL1       -0.4756
     15 C         139.6893  143.6301  165.8003 C.3     1  UNL1        0.2074
     16 C         138.7509  143.1631  164.7274 C.3     1  UNL1        0.0666
     17 C         137.6128  143.4342  163.7888 C.3     1  UNL1        0.0061
     18 C         138.1000  144.5144  164.7084 C.3     1  UNL1        0.0061
     19 H         137.8392  138.3427  161.7950 H       1  UNL1        0.1466
     20 H         136.6136  139.2734  161.0606 H       1  UNL1        0.1466
@<TRIPOS>BOND
     1     1     2    1
     2     2     3    2
     3     3     4    1
     4     4     5    1
     5     5     6    1
     6     4     7    1
     7     7     8   ar
     8     8     9   ar
     9     9    10    1
    10     9    11   ar
    11    11    12   ar
    12    12    13   ar
    13    13    14    1
    14    14    15    1
    15    15    16    1
    16    16    17    1
    17    17    18    1
    18     6     2    1
    19    13     7   ar
    20    18    16    1
    21    16     4    1
    22     1    19    1
    23     1    20    1
@<TRIPOS>MOLECULE
*****
 20 23 0 0 0
SMALL
GASTEIGER

@<TRIPOS>ATOM
      1 N         143.2234  137.5364  161.7164 N.pl3   1  UNL1       -0.3133
      2 C         142.2026  137.8614  162.7664 C.2     1  UNL1        0.2770
      3 N         142.2707  139.0008  163.7395 N.2     1  UNL1       -0.2204
      4 C         141.0446  138.9475  164.6021 C.3     1  UNL1        0.1537
      5 C         140.2189  137.7751  164.1621 C.3     1  UNL1        0.2350
      6 O         140.9345  137.1038  163.0276 O.2     1  UNL1       -0.4478
      7 C         141.9725  140.0796  164.9299 C.ar    1  UNL1        0.0360
      8 C         143.2409  140.2596  164.1497 C.ar    1  UNL1        0.0073
      9 C         144.1688  141.3917  164.4775 C.ar    1  UNL1        0.0345
     10 BR        145.4372  141.5718  163.6973 Br      1  UNL1       -0.0490
     11 C         143.8283  142.3437  165.5855 C.ar    1  UNL1        0.0098
     12 C         142.5599  142.1636  166.3658 C.ar    1  UNL1        0.0371
     13 C         141.6320  141.0316  166.0380 C.ar    1  UNL1        0.1364
     14 O         140.3636  140.8515  166.8182 O.3     1  UNL1       -0.4756
     15 C         139.4357  139.7194  166.4904 C.3     1  UNL1        0.2074
     16 C         139.7762  138.7674  165.3823 C.3     1  UNL1        0.0666
     17 C         139.4371  137.5642  164.5534 C.3     1  UNL1        0.0061
     18 C         138.5082  138.0099  165.6435 C.3     1  UNL1        0.0061
     19 H         144.0277  138.0962  161.6219 H       1  UNL1        0.1466
     20 H         143.0890  136.7634  161.1218 H       1  UNL1        0.1466
@<TRIPOS>BOND
     1     1     2    1
     2     2     3    2
     3     3     4    1
     4     4     5    1
     5     5     6    1
     6     4     7    1
     7     7     8   ar
     8     8     9   ar
     9     9    10    1
    10     9    11   ar
    11    11    12   ar
    12    12    13   ar
    13    13    14    1
    14    14    15    1
    15    15    16    1
    16    16    17    1
    17    17    18    1
    18     6     2    1
    19    13     7   ar
    20    18    16    1
    21    16     4    1
    22     1    19    1
    23     1    20    1
@<TRIPOS>MOLECULE
*****
 20 23 0 0 0
SMALL
GASTEIGER

@<TRIPOS>ATOM
      1 N         140.9827  145.5249  161.0445 N.pl3   1  UNL1       -0.3133
      2 C         141.9509  144.5809  161.6939 C.2     1  UNL1        0.2770
      3 N         141.7941  143.9484  163.0448 N.2     1  UNL1       -0.2204
      4 C         142.9922  143.0803  163.2921 C.3     1  UNL1        0.1537
      5 C         143.8894  143.1764  162.0938 C.3     1  UNL1        0.2350
      6 O         143.2459  144.1038  161.1061 O.2     1  UNL1       -0.4478
      7 C         141.9986  143.0834  164.4159 C.ar    1  UNL1        0.0360
      8 C         140.7492  143.9067  164.3101 C.ar    1  UNL1        0.0073
      9 C         139.7557  143.9098  165.4339 C.ar    1  UNL1        0.0345
     10 BR        138.5063  144.7330  165.3281 Br      1  UNL1       -0.0490
     11 C         140.0116  143.0896  166.6635 C.ar    1  UNL1        0.0098
     12 C         141.2610  142.2664  166.7692 C.ar    1  UNL1        0.0371
     13 C         142.2545  142.2633  165.6455 C.ar    1  UNL1        0.1364
     14 O         143.5040  141.4400  165.7512 O.3     1  UNL1       -0.4756
     15 C         144.4975  141.4369  164.6275 C.3     1  UNL1        0.2074
     16 C         144.2416  142.2570  163.3979 C.3     1  UNL1        0.0666
     17 C         144.6675  142.7287  162.0392 C.3     1  UNL1        0.0061
     18 C         145.5365  141.7799  162.8101 C.3     1  UNL1        0.0061
     19 H         140.1550  145.7800  161.5125 H       1  UNL1        0.1466
     20 H         141.1750  145.8893  160.1504 H       1  UNL1        0.1466
@<TRIPOS>BOND
     1     1     2    1
     2     2     3    2
     3     3     4    1
     4     4     5    1
     5     5     6    1
     6     4     7    1
     7     7     8   ar
     8     8     9   ar
     9     9    10    1
    10     9    11   ar
    11    11    12   ar
    12    12    13   ar
    13    13    14    1
    14    14    15    1
    15    15    16    1
    16    16    17    1
    17    17    18    1
    18     6     2    1
    19    13     7   ar
    20    18    16    1
    21    16     4    1
    22     1    19    1
    23     1    20    1
@<TRIPOS>MOLECULE
*****
 20 23 0 0 0
SMALL
GASTEIGER

@<TRIPOS>ATOM
      1 N         143.8825  145.3805  162.8010 N.pl3   1  UNL1       -0.3133
      2 C         142.5703  144.8495  163.2973 C.2     1  UNL1        0.2770
      3 N         142.3194  143.4652  163.8175 N.2     1  UNL1       -0.2204
      4 C         140.8726  143.3698  164.2021 C.3     1  UNL1        0.1537
      5 C         140.2295  144.6952  163.9196 C.3     1  UNL1        0.2350
      6 O         141.2787  145.6096  163.3604 O.2     1  UNL1       -0.4478
      7 C         141.6494  142.1072  164.4312 C.ar    1  UNL1        0.0360
      8 C         143.1097  142.0532  164.0928 C.ar    1  UNL1        0.0073
      9 C         143.8865  140.7905  164.3219 C.ar    1  UNL1        0.0345
     10 BR        145.3467  140.7365  163.9835 Br      1  UNL1       -0.0490
     11 C         143.2029  139.5820  164.8895 C.ar    1  UNL1        0.0098
     12 C         141.7425  139.6360  165.2279 C.ar    1  UNL1        0.0371
     13 C         140.9658  140.8986  164.9988 C.ar    1  UNL1        0.1364
     14 O         139.5054  140.9527  165.3372 O.3     1  UNL1       -0.4756
     15 C         138.7287  142.2153  165.1081 C.3     1  UNL1        0.2074
     16 C         139.4123  143.4239  164.5405 C.3     1  UNL1        0.0666
     17 C         139.3585  144.8506  164.0806 C.3     1  UNL1        0.0061
     18 C         138.1207  144.1840  164.6036 C.3     1  UNL1        0.0061
     19 H         144.6787  144.8014  162.7987 H       1  UNL1        0.1466
     20 H         143.9476  146.3080  162.4776 H       1  UNL1        0.1466
@<TRIPOS>BOND
     1     1     2    1
     2     2     3    2
     3     3     4    1
     4     4     5    1
     5     5     6    1
     6     4     7    1
     7     7     8   ar
     8     8     9   ar
     9     9    10    1
    10     9    11   ar
    11    11    12   ar
    12    12    13   ar
    13    13    14    1
    14    14    15    1
    15    15    16    1
    16    16    17    1
    17    17    18    1
    18     6     2    1
    19    13     7   ar
    20    18    16    1
    21    16     4    1
    22     1    19    1
    23     1    20    1
@<TRIPOS>MOLECULE
*****
 20 23 0 0 0
SMALL
GASTEIGER

@<TRIPOS>ATOM
      1 N         144.2178  140.6316  164.8354 N.pl3   1  UNL1       -0.3133
      2 C         142.8523  140.0301  164.9901 C.2     1  UNL1        0.2770
      3 N         141.9577  140.1699  166.1859 N.2     1  UNL1       -0.2204
      4 C         140.6943  139.4094  165.9110 C.3     1  UNL1        0.1537
      5 C         140.8082  138.7997  164.5452 C.3     1  UNL1        0.2350
      6 O         142.1419  139.1833  163.9761 O.2     1  UNL1       -0.4478
      7 C         140.7238  140.0787  167.2531 C.ar    1  UNL1        0.0360
      8 C         141.9248  140.8761  167.6673 C.ar    1  UNL1        0.0073
      9 C         141.9543  141.5454  169.0094 C.ar    1  UNL1        0.0345
     10 BR        143.1553  142.3428  169.4236 Br      1  UNL1       -0.0490
     11 C         140.7827  141.4172  169.9373 C.ar    1  UNL1        0.0098
     12 C         139.5817  140.6197  169.5231 C.ar    1  UNL1        0.0371
     13 C         139.5522  139.9505  168.1810 C.ar    1  UNL1        0.1364
     14 O         138.3512  139.1530  167.7667 O.3     1  UNL1       -0.4756
     15 C         138.3217  138.4838  166.4246 C.3     1  UNL1        0.2074
     16 C         139.4933  138.6120  165.4968 C.3     1  UNL1        0.0666
     17 C         140.1527  138.2996  164.1862 C.3     1  UNL1        0.0061
     18 C         138.7829  137.7652  164.4827 C.3     1  UNL1        0.0061
     19 H         144.6012  141.1755  165.5610 H       1  UNL1        0.1466
     20 H         144.7306  140.4824  164.0084 H       1  UNL1        0.1466
@<TRIPOS>BOND
     1     1     2    1
     2     2     3    2
     3     3     4    1
     4     4     5    1
     5     5     6    1
     6     4     7    1
     7     7     8   ar
     8     8     9   ar
     9     9    10    1
    10     9    11   ar
    11    11    12   ar
    12    12    13   ar
    13    13    14    1
    14    14    15    1
    15    15    16    1
    16    16    17    1
    17    17    18    1
    18     6     2    1
    19    13     7   ar
    20    18    16    1
    21    16     4    1
    22     1    19    1
    23     1    20    1
@<TRIPOS>MOLECULE
*****
 20 23 0 0 0
SMALL
GASTEIGER

@<TRIPOS>ATOM
      1 N         137.0329  139.7538  161.0409 N.pl3   1  UNL1       -0.3133
      2 C         138.0841  139.3237  162.0208 C.2     1  UNL1        0.2770
      3 N         138.7404  140.1963  163.0493 N.2     1  UNL1       -0.2204
      4 C         139.7255  139.3574  163.8083 C.3     1  UNL1        0.1537
      5 C         139.6779  137.9665  163.2488 C.3     1  UNL1        0.2350
      6 O         138.6636  137.9457  162.1441 O.2     1  UNL1       -0.4478
      7 C         139.6628  140.7857  164.2623 C.ar    1  UNL1        0.0360
      8 C         138.7219  141.7443  163.5948 C.ar    1  UNL1        0.0073
      9 C         138.6592  143.1726  164.0488 C.ar    1  UNL1        0.0345
     10 BR        137.7183  144.1312  163.3812 Br      1  UNL1       -0.0490
     11 C         139.5376  143.6423  165.1703 C.ar    1  UNL1        0.0098
     12 C         140.4785  142.6836  165.8379 C.ar    1  UNL1        0.0371
     13 C         140.5412  141.2554  165.3839 C.ar    1  UNL1        0.1364
     14 O         141.4821  140.2967  166.0515 O.3     1  UNL1       -0.4756
     15 C         141.5448  138.8685  165.5975 C.3     1  UNL1        0.2074
     16 C         140.6664  138.3988  164.4759 C.3     1  UNL1        0.0666
     17 C         140.1955  137.3031  163.5663 C.3     1  UNL1        0.0061
     18 C         141.2458  137.0208  164.5992 C.3     1  UNL1        0.0061
     19 H         136.7150  140.6855  161.0373 H       1  UNL1        0.1466
     20 H         136.6610  139.1043  160.4013 H       1  UNL1        0.1466
@<TRIPOS>BOND
     1     1     2    1
     2     2     3    2
     3     3     4    1
     4     4     5    1
     5     5     6    1
     6     4     7    1
     7     7     8   ar
     8     8     9   ar
     9     9    10    1
    10     9    11   ar
    11    11    12   ar
    12    12    13   ar
    13    13    14    1
    14    14    15    1
    15    15    16    1
    16    16    17    1
    17    17    18    1
    18     6     2    1
    19    13     7   ar
    20    18    16    1
    21    16     4    1
    22     1    19    1
    23     1    20    1
