@<TRIPOS>MOLECULE
*****
 26 28 0 0 0
SMALL
GASTEIGER

@<TRIPOS>ATOM
      1 N         140.4326  139.1844  164.5156 N.3     1  UNL1       -0.2724
      2 C         141.3796  139.2670  165.6760 C.3     1  UNL1        0.0721
      3 C         142.8552  139.3836  165.4329 C.3     1  UNL1        0.0174
      4 C         143.3837  139.4176  164.0295 C.3     1  UNL1        0.0031
      5 C         142.4367  139.3350  162.8692 C.3     1  UNL1        0.0174
      6 C         140.9611  139.2184  163.1123 C.3     1  UNL1        0.0721
      7 C         138.9570  139.0678  164.7587 C.3     1  UNL1        0.0768
      8 C         138.1764  140.2623  165.2210 C.3     1  UNL1        0.0437
      9 C         138.5268  144.1698  163.0168 C.ar    1  UNL1        0.1387
     10 C         137.7302  143.0444  162.4262 C.ar    1  UNL1        0.0366
     11 C         137.6134  141.7419  163.1609 C.ar    1  UNL1       -0.0011
     12 C         138.2932  141.5648  164.4863 C.ar    1  UNL1       -0.0206
     13 C         139.0898  142.6902  165.0768 C.ar    1  UNL1       -0.0011
     14 C         139.2066  143.9927  164.3421 C.ar    1  UNL1        0.0366
     15 O         138.6436  145.4723  162.2821 O.3     1  UNL1       -0.4724
     16 C         139.9825  145.9409  161.7944 C.3     1  UNL1        0.2434
     17 F         141.1218  143.6928  161.1633 F       1  UNL1       -0.2302
     18 C         140.7592  145.1071  160.8190 C.3     1  UNL1        0.2403
     19 C         144.8593  139.5342  163.7864 C.3     1  UNL1        0.0048
     20 C         145.5850  140.7908  164.1664 C.3     1  UNL1        0.0264
     21 C         144.9782  142.1285  163.8623 C.ar    1  UNL1       -0.0222
     22 C         144.5665  143.0373  164.9822 C.ar    1  UNL1       -0.0043
     23 C         143.9597  144.3750  164.6781 C.ar    1  UNL1       -0.0003
     24 C         143.7646  144.8038  163.2540 C.ar    1  UNL1       -0.0000
     25 C         144.1763  143.8949  162.1340 C.ar    1  UNL1       -0.0003
     26 C         144.7832  142.5572  162.4381 C.ar    1  UNL1       -0.0043
@<TRIPOS>BOND
     1    17    18    1
     2    18    16    1
     3    16    15    1
     4    15     9    1
     5     9    10   ar
     6    10    11   ar
     7    11    12   ar
     8    12     8    1
     9     8     7    1
    10     7     1    1
    11     1     2    1
    12     2     3    1
    13     3     4    1
    14     4    19    1
    15    19    20    1
    16    20    21    1
    17    21    22   ar
    18    22    23   ar
    19    23    24   ar
    20    24    25   ar
    21    25    26   ar
    22     4     5    1
    23     5     6    1
    24    12    13   ar
    25    13    14   ar
    26    14     9   ar
    27     6     1    1
    28    26    21   ar
@<TRIPOS>MOLECULE
*****
 26 28 0 0 0
SMALL
GASTEIGER

@<TRIPOS>ATOM
      1 N         138.3839  143.3335  162.5947 N.3     1  UNL1       -0.2724
      2 C         137.6968  142.3696  163.5162 C.3     1  UNL1        0.0721
      3 C         137.4235  140.9656  163.0646 C.3     1  UNL1        0.0174
      4 C         137.8373  140.5253  161.6916 C.3     1  UNL1        0.0031
      5 C         138.5244  141.4891  160.7703 C.3     1  UNL1        0.0174
      6 C         138.7977  142.8932  161.2218 C.3     1  UNL1        0.0721
      7 C         138.6573  144.7375  163.0463 C.3     1  UNL1        0.0768
      8 C         139.4635  144.9828  164.2871 C.3     1  UNL1        0.0437
      9 C         143.6521  143.3688  164.6045 C.ar    1  UNL1        0.1387
     10 C         142.5115  142.6231  165.2312 C.ar    1  UNL1        0.0366
     11 C         141.1153  143.1611  165.1254 C.ar    1  UNL1       -0.0011
     12 C         140.8597  144.4448  164.3929 C.ar    1  UNL1       -0.0206
     13 C         142.0003  145.1906  163.7662 C.ar    1  UNL1       -0.0011
     14 C         143.3965  144.6526  163.8720 C.ar    1  UNL1        0.0366
     15 O         145.0483  142.8309  164.7103 O.3     1  UNL1       -0.4724
     16 C         145.5591  141.8634  163.6841 C.3     1  UNL1        0.2434
     17 F         144.4866  139.8278  164.8909 F       1  UNL1       -0.2302
     18 C         145.0249  140.4624  163.6428 C.3     1  UNL1        0.2403
     19 C         137.5640  139.1212  161.2401 C.3     1  UNL1        0.0048
     20 C         138.6805  138.1210  161.1830 C.3     1  UNL1        0.0264
     21 C         139.6244  137.9838  162.3407 C.ar    1  UNL1       -0.0222
     22 C         139.0917  137.6918  163.7122 C.ar    1  UNL1       -0.0043
     23 C         140.0357  137.5546  164.8698 C.ar    1  UNL1       -0.0003
     24 C         141.5122  137.7094  164.6560 C.ar    1  UNL1       -0.0000
     25 C         142.0449  138.0014  163.2845 C.ar    1  UNL1       -0.0003
     26 C         141.1010  138.1386  162.1268 C.ar    1  UNL1       -0.0043
@<TRIPOS>BOND
     1    17    18    1
     2    18    16    1
     3    16    15    1
     4    15     9    1
     5     9    10   ar
     6    10    11   ar
     7    11    12   ar
     8    12     8    1
     9     8     7    1
    10     7     1    1
    11     1     2    1
    12     2     3    1
    13     3     4    1
    14     4    19    1
    15    19    20    1
    16    20    21    1
    17    21    22   ar
    18    22    23   ar
    19    23    24   ar
    20    24    25   ar
    21    25    26   ar
    22     4     5    1
    23     5     6    1
    24    12    13   ar
    25    13    14   ar
    26    14     9   ar
    27     6     1    1
    28    26    21   ar
@<TRIPOS>MOLECULE
*****
 26 28 0 0 0
SMALL
GASTEIGER

@<TRIPOS>ATOM
      1 N         144.2878  139.9711  164.0868 N.3     1  UNL1       -0.2724
      2 C         143.8774  139.1590  162.8942 C.3     1  UNL1        0.0721
      3 C         142.7269  138.2022  162.9983 C.3     1  UNL1        0.0174
      4 C         141.9868  138.0574  164.2950 C.3     1  UNL1        0.0031
      5 C         142.3972  138.8694  165.4875 C.3     1  UNL1        0.0174
      6 C         143.5477  139.8263  165.3834 C.3     1  UNL1        0.0721
      7 C         145.4382  140.9280  163.9827 C.3     1  UNL1        0.0768
      8 C         145.3871  142.0580  162.9976 C.3     1  UNL1        0.0437
      9 C         141.7560  144.7086  162.8005 C.ar    1  UNL1        0.1387
     10 C         141.9255  143.5939  161.8112 C.ar    1  UNL1        0.0366
     11 C         143.1358  142.7104  161.8769 C.ar    1  UNL1       -0.0011
     12 C         144.1767  142.9415  162.9319 C.ar    1  UNL1       -0.0206
     13 C         144.0073  144.0562  163.9212 C.ar    1  UNL1       -0.0011
     14 C         142.7969  144.9397  163.8555 C.ar    1  UNL1        0.0366
     15 O         140.5456  145.5922  162.7347 O.3     1  UNL1       -0.4724
     16 C         139.2142  145.0757  163.1936 C.3     1  UNL1        0.2434
     17 F         137.5971  144.6333  165.1784 F       1  UNL1       -0.2302
     18 C         138.9927  144.7555  164.6422 C.3     1  UNL1        0.2403
     19 C         140.8364  137.1005  164.3991 C.3     1  UNL1        0.0048
     20 C         139.5115  137.5742  164.9192 C.3     1  UNL1        0.0264
     21 C         138.8724  138.8002  164.3374 C.ar    1  UNL1       -0.0222
     22 C         138.4794  138.8261  162.8901 C.ar    1  UNL1       -0.0043
     23 C         137.8402  140.0520  162.3082 C.ar    1  UNL1       -0.0003
     24 C         137.5940  141.2521  163.1738 C.ar    1  UNL1       -0.0000
     25 C         137.9870  141.2262  164.6212 C.ar    1  UNL1       -0.0003
     26 C         138.6262  140.0003  165.2030 C.ar    1  UNL1       -0.0043
@<TRIPOS>BOND
     1    17    18    1
     2    18    16    1
     3    16    15    1
     4    15     9    1
     5     9    10   ar
     6    10    11   ar
     7    11    12   ar
     8    12     8    1
     9     8     7    1
    10     7     1    1
    11     1     2    1
    12     2     3    1
    13     3     4    1
    14     4    19    1
    15    19    20    1
    16    20    21    1
    17    21    22   ar
    18    22    23   ar
    19    23    24   ar
    20    24    25   ar
    21    25    26   ar
    22     4     5    1
    23     5     6    1
    24    12    13   ar
    25    13    14   ar
    26    14     9   ar
    27     6     1    1
    28    26    21   ar
@<TRIPOS>MOLECULE
*****
 26 28 0 0 0
SMALL
GASTEIGER

@<TRIPOS>ATOM
      1 N         140.2218  138.0055  163.6129 N.3     1  UNL1       -0.2724
      2 C         141.3589  137.9557  162.6358 C.3     1  UNL1        0.0721
      3 C         142.7353  138.3694  163.0651 C.3     1  UNL1        0.0174
      4 C         142.9746  138.8330  164.4716 C.3     1  UNL1        0.0031
      5 C         141.8375  138.8828  165.4485 C.3     1  UNL1        0.0174
      6 C         140.4611  138.4690  165.0192 C.3     1  UNL1        0.0721
      7 C         138.8454  137.5917  163.1836 C.3     1  UNL1        0.0768
      8 C         138.1334  138.3573  162.1080 C.3     1  UNL1        0.0437
      9 C         137.9382  142.8491  162.2965 C.ar    1  UNL1        0.1387
     10 C         137.6462  142.0336  163.5211 C.ar    1  UNL1        0.0366
     11 C         137.7113  140.5363  163.4583 C.ar    1  UNL1       -0.0011
     12 C         138.0683  139.8545  162.1708 C.ar    1  UNL1       -0.0206
     13 C         138.3602  140.6700  160.9462 C.ar    1  UNL1       -0.0011
     14 C         138.2952  142.1673  161.0090 C.ar    1  UNL1        0.0366
     15 O         137.8731  144.3463  162.3594 O.3     1  UNL1       -0.4724
     16 C         138.9896  145.1195  162.9962 C.3     1  UNL1        0.2434
     17 F         140.9849  143.5004  162.6122 F       1  UNL1       -0.2302
     18 C         140.4066  144.8837  162.5646 C.3     1  UNL1        0.2403
     19 C         144.3510  139.2468  164.9009 C.3     1  UNL1        0.0048
     20 C         145.1741  140.1404  164.0211 C.3     1  UNL1        0.0264
     21 C         144.7760  141.5732  163.8252 C.ar    1  UNL1       -0.0222
     22 C         144.9058  142.2096  162.4732 C.ar    1  UNL1       -0.0043
     23 C         144.5076  143.6425  162.2773 C.ar    1  UNL1       -0.0003
     24 C         143.9797  144.4390  163.4335 C.ar    1  UNL1       -0.0000
     25 C         143.8499  143.8026  164.7857 C.ar    1  UNL1       -0.0003
     26 C         144.2481  142.3697  164.9815 C.ar    1  UNL1       -0.0043
@<TRIPOS>BOND
     1    17    18    1
     2    18    16    1
     3    16    15    1
     4    15     9    1
     5     9    10   ar
     6    10    11   ar
     7    11    12   ar
     8    12     8    1
     9     8     7    1
    10     7     1    1
    11     1     2    1
    12     2     3    1
    13     3     4    1
    14     4    19    1
    15    19    20    1
    16    20    21    1
    17    21    22   ar
    18    22    23   ar
    19    23    24   ar
    20    24    25   ar
    21    25    26   ar
    22     4     5    1
    23     5     6    1
    24    12    13   ar
    25    13    14   ar
    26    14     9   ar
    27     6     1    1
    28    26    21   ar
@<TRIPOS>MOLECULE
*****
 26 28 0 0 0
SMALL
GASTEIGER

@<TRIPOS>ATOM
      1 N         141.6766  137.9218  162.1578 N.3     1  UNL1       -0.2724
      2 C         142.1634  137.7804  163.5696 C.3     1  UNL1        0.0721
      3 C         141.1781  137.6535  164.6935 C.3     1  UNL1        0.0174
      4 C         139.7060  137.6678  164.4056 C.3     1  UNL1        0.0031
      5 C         139.2193  137.8091  162.9938 C.3     1  UNL1        0.0174
      6 C         140.2046  137.9361  161.8700 C.3     1  UNL1        0.0721
      7 C         142.6619  138.0488  161.0340 C.3     1  UNL1        0.0768
      8 C         144.0055  138.6681  161.2809 C.3     1  UNL1        0.0437
      9 C         144.3290  143.0739  162.1379 C.ar    1  UNL1        0.1387
     10 C         143.6469  142.6009  160.8885 C.ar    1  UNL1        0.0366
     11 C         143.5390  141.1324  160.6029 C.ar    1  UNL1       -0.0011
     12 C         144.1133  140.1367  161.5666 C.ar    1  UNL1       -0.0206
     13 C         144.7955  140.6096  162.8159 C.ar    1  UNL1       -0.0011
     14 C         144.9033  142.0782  163.1016 C.ar    1  UNL1        0.0366
     15 O         144.4369  144.5425  162.4236 O.3     1  UNL1       -0.4724
     16 C         143.7127  145.1335  163.5966 C.3     1  UNL1        0.2434
     17 F         141.4450  143.8657  163.6152 F       1  UNL1       -0.2302
     18 C         142.2130  145.1542  163.6194 C.3     1  UNL1        0.2403
     19 C         138.7207  137.5408  165.5294 C.3     1  UNL1        0.0048
     20 C         138.0624  138.7658  166.0917 C.3     1  UNL1        0.0264
     21 C         138.8997  139.9169  166.5651 C.ar    1  UNL1       -0.0222
     22 C         139.1667  141.0759  165.6513 C.ar    1  UNL1       -0.0043
     23 C         140.0040  142.2269  166.1247 C.ar    1  UNL1       -0.0003
     24 C         140.5742  142.2189  167.5120 C.ar    1  UNL1       -0.0000
     25 C         140.3072  141.0598  168.4260 C.ar    1  UNL1       -0.0003
     26 C         139.4699  139.9088  167.9526 C.ar    1  UNL1       -0.0043
@<TRIPOS>BOND
     1    17    18    1
     2    18    16    1
     3    16    15    1
     4    15     9    1
     5     9    10   ar
     6    10    11   ar
     7    11    12   ar
     8    12     8    1
     9     8     7    1
    10     7     1    1
    11     1     2    1
    12     2     3    1
    13     3     4    1
    14     4    19    1
    15    19    20    1
    16    20    21    1
    17    21    22   ar
    18    22    23   ar
    19    23    24   ar
    20    24    25   ar
    21    25    26   ar
    22     4     5    1
    23     5     6    1
    24    12    13   ar
    25    13    14   ar
    26    14     9   ar
    27     6     1    1
    28    26    21   ar
@<TRIPOS>MOLECULE
*****
 26 28 0 0 0
SMALL
GASTEIGER

@<TRIPOS>ATOM
      1 N         144.1617  140.8577  163.7440 N.3     1  UNL1       -0.2724
      2 C         143.4947  140.9045  162.4012 C.3     1  UNL1        0.0721
      3 C         142.5675  139.8011  161.9855 C.3     1  UNL1        0.0174
      4 C         142.3073  138.6509  162.9126 C.3     1  UNL1        0.0031
      5 C         142.9743  138.6041  164.2553 C.3     1  UNL1        0.0174
      6 C         143.9015  139.7075  164.6710 C.3     1  UNL1        0.0721
      7 C         145.0889  141.9611  164.1597 C.3     1  UNL1        0.0768
      8 C         144.5608  143.1335  164.9319 C.3     1  UNL1        0.0437
      9 C         140.3049  144.4761  164.3534 C.ar    1  UNL1        0.1387
     10 C         140.6120  143.3329  165.2746 C.ar    1  UNL1        0.0366
     11 C         142.0307  142.8853  165.4675 C.ar    1  UNL1       -0.0011
     12 C         143.1422  143.5810  164.7391 C.ar    1  UNL1       -0.0206
     13 C         142.8350  144.7243  163.8179 C.ar    1  UNL1       -0.0011
     14 C         141.4164  145.1718  163.6251 C.ar    1  UNL1        0.0366
     15 O         138.8862  144.9236  164.1606 O.3     1  UNL1       -0.4724
     16 C         137.8869  143.9986  163.5317 C.3     1  UNL1        0.2434
     17 F         139.3544  142.4372  162.0624 F       1  UNL1       -0.2302
     18 C         138.1834  143.3638  162.2053 C.3     1  UNL1        0.2403
     19 C         141.3801  137.5475  162.4969 C.3     1  UNL1        0.0048
     20 C         139.8957  137.7594  162.5390 C.3     1  UNL1        0.0264
     21 C         139.2531  138.3215  163.7723 C.ar    1  UNL1       -0.0222
     22 C         138.8833  139.7740  163.8298 C.ar    1  UNL1       -0.0043
     23 C         138.2407  140.3361  165.0632 C.ar    1  UNL1       -0.0003
     24 C         137.9679  139.4457  166.2390 C.ar    1  UNL1       -0.0000
     25 C         138.3377  137.9931  166.1816 C.ar    1  UNL1       -0.0003
     26 C         138.9803  137.4310  164.9482 C.ar    1  UNL1       -0.0043
@<TRIPOS>BOND
     1    17    18    1
     2    18    16    1
     3    16    15    1
     4    15     9    1
     5     9    10   ar
     6    10    11   ar
     7    11    12   ar
     8    12     8    1
     9     8     7    1
    10     7     1    1
    11     1     2    1
    12     2     3    1
    13     3     4    1
    14     4    19    1
    15    19    20    1
    16    20    21    1
    17    21    22   ar
    18    22    23   ar
    19    23    24   ar
    20    24    25   ar
    21    25    26   ar
    22     4     5    1
    23     5     6    1
    24    12    13   ar
    25    13    14   ar
    26    14     9   ar
    27     6     1    1
    28    26    21   ar
@<TRIPOS>MOLECULE
*****
 26 28 0 0 0
SMALL
GASTEIGER

@<TRIPOS>ATOM
      1 N         137.8827  140.1774  162.1981 N.3     1  UNL1       -0.2724
      2 C         137.9835  141.4318  161.3817 C.3     1  UNL1        0.0721
      3 C         137.9856  142.7698  162.0597 C.3     1  UNL1        0.0174
      4 C         137.8869  142.8535  163.5541 C.3     1  UNL1        0.0031
      5 C         137.7861  141.5991  164.3705 C.3     1  UNL1        0.0174
      6 C         137.7840  140.2611  163.6925 C.3     1  UNL1        0.0721
      7 C         137.8807  138.8394  161.5201 C.3     1  UNL1        0.0768
      8 C         139.1762  138.1332  161.2506 C.3     1  UNL1        0.0437
      9 C         142.6231  138.5873  164.1077 C.ar    1  UNL1        0.1387
     10 C         141.5913  137.5236  164.3402 C.ar    1  UNL1        0.0366
     11 C         140.4424  137.3723  163.3879 C.ar    1  UNL1       -0.0011
     12 C         140.3252  138.2845  162.2030 C.ar    1  UNL1       -0.0206
     13 C         141.3569  139.3482  161.9705 C.ar    1  UNL1       -0.0011
     14 C         142.5059  139.4996  162.9229 C.ar    1  UNL1        0.0366
     15 O         143.7720  138.7387  165.0601 O.3     1  UNL1       -0.4724
     16 C         143.6166  138.3274  166.4942 C.3     1  UNL1        0.2434
     17 F         142.7090  138.7948  168.8833 F       1  UNL1       -0.2302
     18 C         142.8612  139.2043  167.4483 C.3     1  UNL1        0.2403
     19 C         137.8889  144.1915  164.2321 C.3     1  UNL1        0.0048
     20 C         138.9759  144.5369  165.2065 C.3     1  UNL1        0.0264
     21 C         140.3869  144.1027  164.9408 C.ar    1  UNL1       -0.0222
     22 C         140.9613  142.9283  165.6761 C.ar    1  UNL1       -0.0043
     23 C         142.3723  142.4941  165.4105 C.ar    1  UNL1       -0.0003
     24 C         143.2089  143.2344  164.4096 C.ar    1  UNL1       -0.0000
     25 C         142.6346  144.4090  163.6742 C.ar    1  UNL1       -0.0003
     26 C         141.2236  144.8431  163.9399 C.ar    1  UNL1       -0.0043
@<TRIPOS>BOND
     1    17    18    1
     2    18    16    1
     3    16    15    1
     4    15     9    1
     5     9    10   ar
     6    10    11   ar
     7    11    12   ar
     8    12     8    1
     9     8     7    1
    10     7     1    1
    11     1     2    1
    12     2     3    1
    13     3     4    1
    14     4    19    1
    15    19    20    1
    16    20    21    1
    17    21    22   ar
    18    22    23   ar
    19    23    24   ar
    20    24    25   ar
    21    25    26   ar
    22     4     5    1
    23     5     6    1
    24    12    13   ar
    25    13    14   ar
    26    14     9   ar
    27     6     1    1
    28    26    21   ar
@<TRIPOS>MOLECULE
*****
 26 28 0 0 0
SMALL
GASTEIGER

@<TRIPOS>ATOM
      1 N         143.8398  141.6365  165.2000 N.3     1  UNL1       -0.2724
      2 C         143.1024  142.5008  166.1796 C.3     1  UNL1        0.0721
      3 C         142.0526  141.9008  167.0672 C.3     1  UNL1        0.0174
      4 C         141.7401  140.4365  166.9753 C.3     1  UNL1        0.0031
      5 C         142.4775  139.5723  165.9958 C.3     1  UNL1        0.0174
      6 C         143.5274  140.1723  165.1082 C.3     1  UNL1        0.0721
      7 C         144.8896  142.2365  164.3124 C.3     1  UNL1        0.0768
      8 C         144.4899  142.9541  163.0574 C.3     1  UNL1        0.0437
      9 C         140.2504  144.3660  162.5256 C.ar    1  UNL1        0.1387
     10 C         140.6181  142.9520  162.1861 C.ar    1  UNL1        0.0366
     11 C         142.0313  142.4814  162.3634 C.ar    1  UNL1       -0.0011
     12 C         143.0768  143.4248  162.8801 C.ar    1  UNL1       -0.0206
     13 C         142.7090  144.8388  163.2196 C.ar    1  UNL1       -0.0011
     14 C         141.2958  145.3094  163.0424 C.ar    1  UNL1        0.0366
     15 O         138.8372  144.8366  162.3483 O.3     1  UNL1       -0.4724
     16 C         137.7349  144.2227  163.1595 C.3     1  UNL1        0.2434
     17 F         138.6583  145.2753  165.3480 F       1  UNL1       -0.2302
     18 C         137.7958  144.2605  164.6578 C.3     1  UNL1        0.2403
     19 C         140.6903  139.8365  167.8629 C.3     1  UNL1        0.0048
     20 C         139.2672  139.7592  167.3949 C.3     1  UNL1        0.0264
     21 C         138.9665  139.5374  165.9422 C.ar    1  UNL1       -0.0222
     22 C         139.1665  138.1813  165.3333 C.ar    1  UNL1       -0.0043
     23 C         138.8657  137.9596  163.8806 C.ar    1  UNL1       -0.0003
     24 C         138.3650  139.0940  163.0367 C.ar    1  UNL1       -0.0000
     25 C         138.1650  140.4503  163.6456 C.ar    1  UNL1       -0.0003
     26 C         138.4657  140.6720  165.0983 C.ar    1  UNL1       -0.0043
@<TRIPOS>BOND
     1    17    18    1
     2    18    16    1
     3    16    15    1
     4    15     9    1
     5     9    10   ar
     6    10    11   ar
     7    11    12   ar
     8    12     8    1
     9     8     7    1
    10     7     1    1
    11     1     2    1
    12     2     3    1
    13     3     4    1
    14     4    19    1
    15    19    20    1
    16    20    21    1
    17    21    22   ar
    18    22    23   ar
    19    23    24   ar
    20    24    25   ar
    21    25    26   ar
    22     4     5    1
    23     5     6    1
    24    12    13   ar
    25    13    14   ar
    26    14     9   ar
    27     6     1    1
    28    26    21   ar
@<TRIPOS>MOLECULE
*****
 26 28 0 0 0
SMALL
GASTEIGER

@<TRIPOS>ATOM
      1 N         138.9186  139.0654  163.3086 N.3     1  UNL1       -0.2724
      2 C         138.5077  139.3689  164.7190 C.3     1  UNL1        0.0721
      3 C         138.1455  140.7711  165.1094 C.3     1  UNL1        0.0174
      4 C         138.1942  141.8700  164.0894 C.3     1  UNL1        0.0031
      5 C         138.6050  141.5665  162.6791 C.3     1  UNL1        0.0174
      6 C         138.9672  140.1642  162.2887 C.3     1  UNL1        0.0721
      7 C         139.2808  137.6631  162.9181 C.3     1  UNL1        0.0768
      8 C         140.4831  137.0026  163.5247 C.3     1  UNL1        0.0437
      9 C         144.3274  139.2990  163.9697 C.ar    1  UNL1        0.1387
     10 C         143.4608  139.0479  165.1680 C.ar    1  UNL1        0.0366
     11 C         142.1793  138.2824  165.0196 C.ar    1  UNL1       -0.0011
     12 C         141.7645  137.7680  163.6730 C.ar    1  UNL1       -0.0206
     13 C         142.6312  138.0192  162.4748 C.ar    1  UNL1       -0.0011
     14 C         143.9126  138.7847  162.6231 C.ar    1  UNL1        0.0366
     15 O         145.6088  140.0645  164.1181 O.3     1  UNL1       -0.4724
     16 C         145.6311  141.5442  163.8732 C.3     1  UNL1        0.2434
     17 F         143.8848  142.0430  162.0154 F       1  UNL1       -0.2302
     18 C         145.2989  142.0846  162.5140 C.3     1  UNL1        0.2403
     19 C         137.8319  143.2722  164.4798 C.3     1  UNL1        0.0048
     20 C         138.8210  144.1243  165.2186 C.3     1  UNL1        0.0264
     21 C         140.1768  143.5783  165.5560 C.ar    1  UNL1       -0.0222
     22 C         141.3153  143.7508  164.5949 C.ar    1  UNL1       -0.0043
     23 C         142.6710  143.2048  164.9323 C.ar    1  UNL1       -0.0003
     24 C         142.8882  142.4862  166.2309 C.ar    1  UNL1       -0.0000
     25 C         141.7496  142.3137  167.1922 C.ar    1  UNL1       -0.0003
     26 C         140.3939  142.8597  166.8547 C.ar    1  UNL1       -0.0043
@<TRIPOS>BOND
     1    17    18    1
     2    18    16    1
     3    16    15    1
     4    15     9    1
     5     9    10   ar
     6    10    11   ar
     7    11    12   ar
     8    12     8    1
     9     8     7    1
    10     7     1    1
    11     1     2    1
    12     2     3    1
    13     3     4    1
    14     4    19    1
    15    19    20    1
    16    20    21    1
    17    21    22   ar
    18    22    23   ar
    19    23    24   ar
    20    24    25   ar
    21    25    26   ar
    22     4     5    1
    23     5     6    1
    24    12    13   ar
    25    13    14   ar
    26    14     9   ar
    27     6     1    1
    28    26    21   ar
