@<TRIPOS>MOLECULE
*****
 32 34 0 0 0
SMALL
GASTEIGER

@<TRIPOS>ATOM
      1 C         140.5057  144.7522  163.1566 C.3     1  UNL1        0.1000
      2 C         141.9398  145.1775  163.0465 C.3     1  UNL1        0.0332
      3 C         142.9825  144.5296  163.9084 C.3     1  UNL1        0.0735
      4 N         142.5910  143.4563  164.8805 N.3     1  UNL1       -0.2688
      5 C         141.1568  143.0310  164.9906 C.3     1  UNL1        0.0735
      6 C         140.1141  143.6789  164.1286 C.3     1  UNL1        0.0332
      7 C         139.0293  144.6924  162.8979 C.1     1  UNL1        0.0729
      8 N         137.5530  144.6327  162.6392 N.1     1  UNL1       -0.1959
      9 C         140.3845  145.8047  162.0947 C.3     1  UNL1        0.1037
     10 C         140.6302  145.1491  159.5927 C.2     1  UNL1        0.2461
     11 O         142.1233  145.1668  159.7347 O.2     1  UNL1       -0.2701
     12 N         139.7607  145.4680  160.7727 N.am    1  UNL1       -0.2998
     13 H         138.7807  145.4564  160.6795 H       1  UNL1        0.1498
     14 C         138.8995  143.0811  156.6809 C.ar    1  UNL1        0.1419
     15 C         138.7590  144.1389  155.6268 C.ar    1  UNL1        0.0738
     16 C         139.2421  145.5335  155.8947 C.ar    1  UNL1        0.1419
     17 C         139.8658  145.8702  157.2166 C.ar    1  UNL1        0.0416
     18 C         140.0064  144.8124  158.2707 C.ar    1  UNL1        0.0594
     19 C         139.5233  143.4178  158.0029 C.ar    1  UNL1        0.0416
     20 C         137.3632  141.0764  157.2896 C.3     1  UNL1        0.2525
     21 O         138.4164  141.6865  156.4131 O.3     1  UNL1       -0.4713
     22 O         139.1015  146.5914  154.8405 O.3     1  UNL1       -0.4713
     23 C         139.2492  148.0387  155.2060 C.3     1  UNL1        0.2525
     24 C         143.6337  142.8084  165.7424 C.3     1  UNL1        0.1022
     25 C         143.2434  141.7299  166.7090 C.ar    1  UNL1        0.0279
     26 C         142.9695  142.0716  168.1437 C.ar    1  UNL1        0.0001
     27 C         142.5792  140.9930  169.1103 C.ar    1  UNL1       -0.0001
     28 C         142.4628  139.5727  168.6423 C.ar    1  UNL1        0.0031
     29 C         142.7368  139.2309  167.2076 C.ar    1  UNL1        0.0366
     30 C         143.1271  140.3095  166.2411 C.ar    1  UNL1        0.1360
     31 O         143.4010  139.9677  164.8064 O.3     1  UNL1       -0.4717
     32 C         144.7535  139.4607  164.4013 C.3     1  UNL1        0.2525
@<TRIPOS>BOND
     1    20    21    1
     2    21    14    1
     3    14    15   ar
     4    15    16   ar
     5    16    22    1
     6    22    23    1
     7    16    17   ar
     8    17    18   ar
     9    18    10    1
    10    10    11    2
    11    10    12   am
    12    12     9    1
    13     9     1    1
    14     1     7    1
    15     7     8    3
    16     1     2    1
    17     2     3    1
    18     3     4    1
    19     4    24    1
    20    24    25    1
    21    25    26   ar
    22    26    27   ar
    23    27    28   ar
    24    28    29   ar
    25    29    30   ar
    26    30    31    1
    27    31    32    1
    28     4     5    1
    29     5     6    1
    30    18    19   ar
    31    19    14   ar
    32     6     1    1
    33    30    25   ar
    34    12    13    1
@<TRIPOS>MOLECULE
*****
 32 34 0 0 0
SMALL
GASTEIGER

@<TRIPOS>ATOM
      1 C         142.0580  144.1469  163.9881 C.3     1  UNL1        0.1000
      2 C         140.6212  143.8198  164.2678 C.3     1  UNL1        0.0332
      3 C         140.2754  142.7290  165.2376 C.3     1  UNL1        0.0735
      4 N         141.3665  141.9652  165.9276 N.3     1  UNL1       -0.2688
      5 C         142.8034  142.2923  165.6478 C.3     1  UNL1        0.0735
      6 C         143.1492  143.3832  164.6781 C.3     1  UNL1        0.0332
      7 C         143.2612  144.8206  163.3974 C.1     1  UNL1        0.0729
      8 N         144.4642  145.4942  162.8068 N.1     1  UNL1       -0.1959
      9 C         141.3847  145.1446  163.0930 C.3     1  UNL1        0.1037
     10 C         140.6974  144.9088  160.5985 C.2     1  UNL1        0.2461
     11 O         139.3015  144.5529  161.0168 O.2     1  UNL1       -0.2701
     12 N         141.7390  145.2046  161.6366 N.am    1  UNL1       -0.2998
     13 H         142.6551  145.4382  161.3620 H       1  UNL1        0.1498
     14 C         142.4739  144.1305  157.1361 C.ar    1  UNL1        0.1419
     15 C         141.7601  145.0889  156.2296 C.ar    1  UNL1        0.0738
     16 C         140.6921  145.9873  156.7793 C.ar    1  UNL1        0.1419
     17 C         140.3379  145.9273  158.2356 C.ar    1  UNL1        0.0416
     18 C         141.0516  144.9689  159.1422 C.ar    1  UNL1        0.0594
     19 C         142.1196  144.0704  158.5924 C.ar    1  UNL1        0.0416
     20 C         143.9631  142.0125  157.3513 C.3     1  UNL1        0.2525
     21 O         143.5419  143.2320  156.5864 O.3     1  UNL1       -0.4713
     22 O         139.9783  146.9458  155.8726 O.3     1  UNL1       -0.4713
     23 C         138.6391  146.5830  155.3027 C.3     1  UNL1        0.2525
     24 C         141.0207  140.8744  166.8974 C.3     1  UNL1        0.1022
     25 C         140.1456  139.7356  166.4645 C.ar    1  UNL1        0.0279
     26 C         138.7957  139.5470  167.0908 C.ar    1  UNL1        0.0001
     27 C         137.9205  138.4082  166.6579 C.ar    1  UNL1       -0.0001
     28 C         138.3953  137.4581  165.5987 C.ar    1  UNL1        0.0031
     29 C         139.7452  137.6467  164.9724 C.ar    1  UNL1        0.0366
     30 C         140.6203  138.7854  165.4053 C.ar    1  UNL1        0.1360
     31 O         141.9702  138.9741  164.7790 O.3     1  UNL1       -0.4717
     32 C         142.0789  139.4437  163.3585 C.3     1  UNL1        0.2525
@<TRIPOS>BOND
     1    20    21    1
     2    21    14    1
     3    14    15   ar
     4    15    16   ar
     5    16    22    1
     6    22    23    1
     7    16    17   ar
     8    17    18   ar
     9    18    10    1
    10    10    11    2
    11    10    12   am
    12    12     9    1
    13     9     1    1
    14     1     7    1
    15     7     8    3
    16     1     2    1
    17     2     3    1
    18     3     4    1
    19     4    24    1
    20    24    25    1
    21    25    26   ar
    22    26    27   ar
    23    27    28   ar
    24    28    29   ar
    25    29    30   ar
    26    30    31    1
    27    31    32    1
    28     4     5    1
    29     5     6    1
    30    18    19   ar
    31    19    14   ar
    32     6     1    1
    33    30    25   ar
    34    12    13    1
@<TRIPOS>MOLECULE
*****
 32 34 0 0 0
SMALL
GASTEIGER

@<TRIPOS>ATOM
      1 C         141.9365  144.1209  163.9586 C.3     1  UNL1        0.1000
      2 C         140.4893  143.8062  164.1964 C.3     1  UNL1        0.0332
      3 C         140.1046  142.7545  165.1943 C.3     1  UNL1        0.0735
      4 N         141.1672  142.0174  165.9544 N.3     1  UNL1       -0.2688
      5 C         142.6144  142.3321  165.7167 C.3     1  UNL1        0.0735
      6 C         142.9990  143.3839  164.7188 C.3     1  UNL1        0.0332
      7 C         143.1626  144.7699  163.3880 C.1     1  UNL1        0.0729
      8 N         144.3886  145.4188  162.8174 N.1     1  UNL1       -0.1959
      9 C         141.2997  145.0833  163.0004 C.3     1  UNL1        0.1037
     10 C         140.5618  145.4444  160.5356 C.2     1  UNL1        0.2461
     11 O         139.2608  146.0213  161.0096 O.2     1  UNL1       -0.2701
     12 N         141.5812  144.9754  161.5309 N.am    1  UNL1       -0.2998
     13 H         142.4351  144.5968  161.2198 H       1  UNL1        0.1498
     14 C         140.3105  146.0205  156.6170 C.ar    1  UNL1        0.1419
     15 C         141.4061  145.1208  156.1274 C.ar    1  UNL1        0.0738
     16 C         142.2204  144.3288  157.1071 C.ar    1  UNL1        0.1419
     17 C         141.9389  144.4367  158.5765 C.ar    1  UNL1        0.0416
     18 C         140.8433  145.3365  159.0661 C.ar    1  UNL1        0.0594
     19 C         140.0290  146.1284  158.0864 C.ar    1  UNL1        0.0416
     20 C         140.1797  147.6265  154.5790 C.3     1  UNL1        0.2525
     21 O         139.4962  146.8125  155.6373 O.3     1  UNL1       -0.4713
     22 O         143.3161  143.4290  156.6174 O.3     1  UNL1       -0.4713
     23 C         143.8632  142.3574  157.5132 C.3     1  UNL1        0.2525
     24 C         140.7825  140.9657  166.9524 C.3     1  UNL1        0.1022
     25 C         139.9838  139.7736  166.5154 C.ar    1  UNL1        0.0279
     26 C         138.6404  139.5060  167.1267 C.ar    1  UNL1        0.0001
     27 C         137.8416  138.3138  166.6898 C.ar    1  UNL1       -0.0001
     28 C         138.3863  137.3893  165.6416 C.ar    1  UNL1        0.0031
     29 C         139.7297  137.6570  165.0304 C.ar    1  UNL1        0.0366
     30 C         140.5284  138.8491  165.4673 C.ar    1  UNL1        0.1360
     31 O         141.8719  139.1167  164.8561 O.3     1  UNL1       -0.4717
     32 C         143.0988  138.4721  165.4300 C.3     1  UNL1        0.2525
@<TRIPOS>BOND
     1    20    21    1
     2    21    14    1
     3    14    15   ar
     4    15    16   ar
     5    16    22    1
     6    22    23    1
     7    16    17   ar
     8    17    18   ar
     9    18    10    1
    10    10    11    2
    11    10    12   am
    12    12     9    1
    13     9     1    1
    14     1     7    1
    15     7     8    3
    16     1     2    1
    17     2     3    1
    18     3     4    1
    19     4    24    1
    20    24    25    1
    21    25    26   ar
    22    26    27   ar
    23    27    28   ar
    24    28    29   ar
    25    29    30   ar
    26    30    31    1
    27    31    32    1
    28     4     5    1
    29     5     6    1
    30    18    19   ar
    31    19    14   ar
    32     6     1    1
    33    30    25   ar
    34    12    13    1
@<TRIPOS>MOLECULE
*****
 32 34 0 0 0
SMALL
GASTEIGER

@<TRIPOS>ATOM
      1 C         143.2574  139.3725  165.6244 C.3     1  UNL1        0.1000
      2 C         142.8787  140.2893  164.4994 C.3     1  UNL1        0.0332
      3 C         141.9199  141.4173  164.7414 C.3     1  UNL1        0.0735
      4 N         141.3400  141.6283  166.1086 N.3     1  UNL1       -0.2688
      5 C         141.7187  140.7114  167.2337 C.3     1  UNL1        0.0735
      6 C         142.6775  139.5834  166.9916 C.3     1  UNL1        0.0332
      7 C         143.9172  138.2464  166.3639 C.1     1  UNL1        0.0729
      8 N         144.5770  137.1205  167.1033 N.1     1  UNL1       -0.1959
      9 C         144.0665  138.7704  164.5140 C.3     1  UNL1        0.1037
     10 C         142.4225  138.0599  162.6319 C.2     1  UNL1        0.2461
     11 O         141.7300  137.1331  163.5866 O.2     1  UNL1       -0.2701
     12 N         143.5908  138.8785  163.0956 N.am    1  UNL1       -0.2998
     13 H         144.0453  139.4868  162.4689 H       1  UNL1        0.1498
     14 C         140.0789  138.7537  159.5052 C.ar    1  UNL1        0.1419
     15 C         140.9952  138.3842  158.3766 C.ar    1  UNL1        0.0738
     16 C         142.3873  137.9065  158.6664 C.ar    1  UNL1        0.1419
     17 C         142.8631  137.7984  160.0848 C.ar    1  UNL1        0.0416
     18 C         141.9468  138.1680  161.2134 C.ar    1  UNL1        0.0594
     19 C         140.5547  138.6456  160.9236 C.ar    1  UNL1        0.0416
     20 C         138.4617  140.3186  158.2068 C.3     1  UNL1        0.2525
     21 O         138.6869  139.2314  159.2154 O.3     1  UNL1       -0.4713
     22 O         143.3036  137.5370  157.5377 O.3     1  UNL1       -0.4713
     23 C         143.1032  136.2458  156.8010 C.3     1  UNL1        0.2525
     24 C         140.3812  142.7562  166.3507 C.3     1  UNL1        0.1022
     25 C         139.4937  143.2372  165.2414 C.ar    1  UNL1        0.0279
     26 C         139.7069  144.5977  164.6466 C.ar    1  UNL1        0.0001
     27 C         138.8193  145.0789  163.5372 C.ar    1  UNL1       -0.0001
     28 C         137.7185  144.1995  163.0225 C.ar    1  UNL1        0.0031
     29 C         137.5052  142.8390  163.6173 C.ar    1  UNL1        0.0366
     30 C         138.3928  142.3579  164.7266 C.ar    1  UNL1        0.1360
     31 O         138.1796  140.9974  165.3213 O.3     1  UNL1       -0.4717
     32 C         138.5476  139.7712  164.5396 C.3     1  UNL1        0.2525
@<TRIPOS>BOND
     1    20    21    1
     2    21    14    1
     3    14    15   ar
     4    15    16   ar
     5    16    22    1
     6    22    23    1
     7    16    17   ar
     8    17    18   ar
     9    18    10    1
    10    10    11    2
    11    10    12   am
    12    12     9    1
    13     9     1    1
    14     1     7    1
    15     7     8    3
    16     1     2    1
    17     2     3    1
    18     3     4    1
    19     4    24    1
    20    24    25    1
    21    25    26   ar
    22    26    27   ar
    23    27    28   ar
    24    28    29   ar
    25    29    30   ar
    26    30    31    1
    27    31    32    1
    28     4     5    1
    29     5     6    1
    30    18    19   ar
    31    19    14   ar
    32     6     1    1
    33    30    25   ar
    34    12    13    1
@<TRIPOS>MOLECULE
*****
 32 34 0 0 0
SMALL
GASTEIGER

@<TRIPOS>ATOM
      1 C         140.7858  144.3451  162.4257 C.3     1  UNL1        0.1000
      2 C         139.3397  144.5215  162.0684 C.3     1  UNL1        0.0332
      3 C         138.3126  143.5702  162.6070 C.3     1  UNL1        0.0735
      4 N         138.7317  142.4424  163.5028 N.3     1  UNL1       -0.2688
      5 C         140.1777  142.2659  163.8600 C.3     1  UNL1        0.0735
      6 C         141.2048  143.2172  163.3215 C.3     1  UNL1        0.0332
      7 C         142.2648  144.5898  162.4782 C.1     1  UNL1        0.0729
      8 N         143.7437  144.8345  162.5306 N.1     1  UNL1       -0.1959
      9 C         140.8804  145.5578  161.5481 C.3     1  UNL1        0.1037
     10 C         140.8228  145.3360  158.9602 C.2     1  UNL1        0.2461
     11 O         142.2868  145.0095  158.9556 O.2     1  UNL1       -0.2701
     12 N         140.1196  145.6101  160.2564 N.am    1  UNL1       -0.2998
     13 H         139.1587  145.8244  160.2594 H       1  UNL1        0.1498
     14 C         138.7645  144.1777  155.7708 C.ar    1  UNL1        0.1419
     15 C         138.5404  145.4928  155.0851 C.ar    1  UNL1        0.0738
     16 C         139.0772  146.7556  155.6910 C.ar    1  UNL1        0.1419
     17 C         139.8380  146.7034  156.9827 C.ar    1  UNL1        0.0416
     18 C         140.0620  145.3883  157.6684 C.ar    1  UNL1        0.0594
     19 C         139.5253  144.1254  157.0625 C.ar    1  UNL1        0.0416
     20 C         137.7596  141.7982  156.0502 C.3     1  UNL1        0.2525
     21 O         138.2278  142.9148  155.1649 O.3     1  UNL1       -0.4713
     22 O         138.8531  148.0707  155.0052 O.3     1  UNL1       -0.4713
     23 C         139.8047  148.5340  153.9422 C.3     1  UNL1        0.2525
     24 C         137.7045  141.4911  164.0413 C.3     1  UNL1        0.1022
     25 C         138.0950  140.0863  164.3936 C.ar    1  UNL1        0.0279
     26 C         138.1120  139.6500  165.8287 C.ar    1  UNL1        0.0001
     27 C         138.5025  138.2452  166.1810 C.ar    1  UNL1       -0.0001
     28 C         138.8760  137.2767  165.0982 C.ar    1  UNL1        0.0031
     29 C         138.8590  137.7130  163.6631 C.ar    1  UNL1        0.0366
     30 C         138.4685  139.1177  163.3108 C.ar    1  UNL1        0.1360
     31 O         138.4515  139.5540  161.8757 O.3     1  UNL1       -0.4717
     32 C         139.7420  139.7902  161.1484 C.3     1  UNL1        0.2525
@<TRIPOS>BOND
     1    20    21    1
     2    21    14    1
     3    14    15   ar
     4    15    16   ar
     5    16    22    1
     6    22    23    1
     7    16    17   ar
     8    17    18   ar
     9    18    10    1
    10    10    11    2
    11    10    12   am
    12    12     9    1
    13     9     1    1
    14     1     7    1
    15     7     8    3
    16     1     2    1
    17     2     3    1
    18     3     4    1
    19     4    24    1
    20    24    25    1
    21    25    26   ar
    22    26    27   ar
    23    27    28   ar
    24    28    29   ar
    25    29    30   ar
    26    30    31    1
    27    31    32    1
    28     4     5    1
    29     5     6    1
    30    18    19   ar
    31    19    14   ar
    32     6     1    1
    33    30    25   ar
    34    12    13    1
@<TRIPOS>MOLECULE
*****
 32 34 0 0 0
SMALL
GASTEIGER

@<TRIPOS>ATOM
      1 C         141.8381  144.2492  163.8689 C.3     1  UNL1        0.1000
      2 C         140.3937  144.4476  164.2215 C.3     1  UNL1        0.0332
      3 C         139.7567  143.5978  165.2807 C.3     1  UNL1        0.0735
      4 N         140.5641  142.5496  165.9874 N.3     1  UNL1       -0.2688
      5 C         142.0085  142.3512  165.6348 C.3     1  UNL1        0.0735
      6 C         142.6455  143.2010  164.5756 C.3     1  UNL1        0.0332
      7 C         143.1618  144.4376  163.1888 C.1     1  UNL1        0.0729
      8 N         144.4854  144.6259  162.5088 N.1     1  UNL1       -0.1959
      9 C         141.4903  145.3628  162.9260 C.3     1  UNL1        0.1037
     10 C         140.7555  145.2342  160.4373 C.2     1  UNL1        0.2461
     11 O         139.3184  145.3281  160.8568 O.2     1  UNL1       -0.2701
     12 N         141.8414  145.2515  161.4719 N.am    1  UNL1       -0.2998
     13 H         142.7846  145.1899  161.1966 H       1  UNL1        0.1498
     14 C         140.7280  145.8428  156.5157 C.ar    1  UNL1        0.1419
     15 C         141.8087  144.9005  156.0751 C.ar    1  UNL1        0.0738
     16 C         142.5382  144.0693  157.0885 C.ar    1  UNL1        0.1419
     17 C         142.1872  144.1806  158.5425 C.ar    1  UNL1        0.0416
     18 C         141.1066  145.1229  158.9832 C.ar    1  UNL1        0.0594
     19 C         140.3770  145.9540  157.9698 C.ar    1  UNL1        0.0416
     20 C         138.9830  147.6828  155.9507 C.3     1  UNL1        0.2525
     21 O         139.9985  146.6739  155.5024 O.3     1  UNL1       -0.4713
     22 O         143.6189  143.1270  156.6477 O.3     1  UNL1       -0.4713
     23 C         144.2314  142.1752  157.6321 C.3     1  UNL1        0.2525
     24 C         139.9271  141.6998  167.0467 C.3     1  UNL1        0.1022
     25 C         140.6466  141.4466  168.3383 C.ar    1  UNL1        0.0279
     26 C         140.4817  142.3966  169.4874 C.ar    1  UNL1        0.0001
     27 C         141.2012  142.1434  170.7790 C.ar    1  UNL1       -0.0001
     28 C         142.0855  140.9402  170.9216 C.ar    1  UNL1        0.0031
     29 C         142.2503  139.9902  169.7725 C.ar    1  UNL1        0.0366
     30 C         141.5309  140.2434  168.4809 C.ar    1  UNL1        0.1360
     31 O         141.6957  139.2934  167.3318 O.3     1  UNL1       -0.4717
     32 C         143.0693  138.9252  166.8543 C.3     1  UNL1        0.2525
@<TRIPOS>BOND
     1    20    21    1
     2    21    14    1
     3    14    15   ar
     4    15    16   ar
     5    16    22    1
     6    22    23    1
     7    16    17   ar
     8    17    18   ar
     9    18    10    1
    10    10    11    2
    11    10    12   am
    12    12     9    1
    13     9     1    1
    14     1     7    1
    15     7     8    3
    16     1     2    1
    17     2     3    1
    18     3     4    1
    19     4    24    1
    20    24    25    1
    21    25    26   ar
    22    26    27   ar
    23    27    28   ar
    24    28    29   ar
    25    29    30   ar
    26    30    31    1
    27    31    32    1
    28     4     5    1
    29     5     6    1
    30    18    19   ar
    31    19    14   ar
    32     6     1    1
    33    30    25   ar
    34    12    13    1
@<TRIPOS>MOLECULE
*****
 32 34 0 0 0
SMALL
GASTEIGER

@<TRIPOS>ATOM
      1 C         143.5699  139.6623  163.6383 C.3     1  UNL1        0.1000
      2 C         143.6665  140.9449  164.4098 C.3     1  UNL1        0.0332
      3 C         143.3313  140.9679  165.8717 C.3     1  UNL1        0.0735
      4 N         142.8993  139.7081  166.5620 N.3     1  UNL1       -0.2688
      5 C         142.8027  138.4255  165.7904 C.3     1  UNL1        0.0735
      6 C         143.1379  138.4025  164.3286 C.3     1  UNL1        0.0332
      7 C         143.6306  138.7011  162.4882 C.1     1  UNL1        0.0729
      8 N         143.6912  137.7400  161.3382 N.1     1  UNL1       -0.1959
      9 C         144.0229  140.5882  162.5486 C.3     1  UNL1        0.1037
     10 C         142.9148  142.0702  160.7249 C.2     1  UNL1        0.2461
     11 O         143.4916  141.1881  159.6576 O.2     1  UNL1       -0.2701
     12 N         143.1804  141.7703  162.1704 N.am    1  UNL1       -0.2998
     13 H         142.8018  142.3492  162.8709 H       1  UNL1        0.1498
     14 C         140.1630  144.9243  160.9021 C.ar    1  UNL1        0.1419
     15 C         140.3873  145.6162  159.5903 C.ar    1  UNL1        0.0738
     16 C         141.4542  145.1261  158.6567 C.ar    1  UNL1        0.1419
     17 C         142.2967  143.9441  159.0348 C.ar    1  UNL1        0.0416
     18 C         142.0723  143.2522  160.3466 C.ar    1  UNL1        0.0594
     19 C         141.0054  143.7423  161.2803 C.ar    1  UNL1        0.0416
     20 C         138.8435  144.6971  163.1286 C.3     1  UNL1        0.2525
     21 O         139.0961  145.4144  161.8357 O.3     1  UNL1       -0.4713
     22 O         141.6785  145.8181  157.3448 O.3     1  UNL1       -0.4713
     23 C         140.5073  146.2084  156.4928 C.3     1  UNL1        0.2525
     24 C         142.5640  139.7311  168.0238 C.3     1  UNL1        0.1022
     25 C         142.1286  141.0111  168.6734 C.ar    1  UNL1        0.0279
     26 C         143.0599  141.7375  169.5981 C.ar    1  UNL1        0.0001
     27 C         142.6245  143.0176  170.2477 C.ar    1  UNL1       -0.0001
     28 C         141.2579  143.5712  169.9727 C.ar    1  UNL1        0.0031
     29 C         140.3265  142.8447  169.0480 C.ar    1  UNL1        0.0366
     30 C         140.7620  141.5648  168.3984 C.ar    1  UNL1        0.1360
     31 O         139.8307  140.8383  167.4737 O.3     1  UNL1       -0.4717
     32 C         139.6109  141.3463  166.0795 C.3     1  UNL1        0.2525
@<TRIPOS>BOND
     1    20    21    1
     2    21    14    1
     3    14    15   ar
     4    15    16   ar
     5    16    22    1
     6    22    23    1
     7    16    17   ar
     8    17    18   ar
     9    18    10    1
    10    10    11    2
    11    10    12   am
    12    12     9    1
    13     9     1    1
    14     1     7    1
    15     7     8    3
    16     1     2    1
    17     2     3    1
    18     3     4    1
    19     4    24    1
    20    24    25    1
    21    25    26   ar
    22    26    27   ar
    23    27    28   ar
    24    28    29   ar
    25    29    30   ar
    26    30    31    1
    27    31    32    1
    28     4     5    1
    29     5     6    1
    30    18    19   ar
    31    19    14   ar
    32     6     1    1
    33    30    25   ar
    34    12    13    1
@<TRIPOS>MOLECULE
*****
 32 34 0 0 0
SMALL
GASTEIGER

@<TRIPOS>ATOM
      1 C         141.8949  137.0336  156.6467 C.3     1  UNL1        0.1000
      2 C         140.7903  136.5277  155.7670 C.3     1  UNL1        0.0332
      3 C         141.0159  135.3284  154.8947 C.3     1  UNL1        0.0735
      4 N         142.3461  134.6351  154.9022 N.3     1  UNL1       -0.2688
      5 C         143.4507  135.1411  155.7819 C.3     1  UNL1        0.0735
      6 C         143.2251  136.3404  156.6542 C.3     1  UNL1        0.0332
      7 C         142.6256  137.8829  157.6442 C.1     1  UNL1        0.0729
      8 N         143.3563  138.7320  158.6416 N.1     1  UNL1       -0.1959
      9 C         140.8185  138.0218  156.9856 C.3     1  UNL1        0.1037
     10 C         139.2355  139.0986  158.7420 C.2     1  UNL1        0.2461
     11 O         138.4668  139.7658  157.6402 O.2     1  UNL1       -0.2701
     12 N         140.4113  138.2266  158.4148 N.am    1  UNL1       -0.2998
     13 H         140.9159  137.7887  159.1379 H       1  UNL1        0.1498
     14 C         138.6279  138.4123  162.6034 C.ar    1  UNL1        0.1419
     15 C         138.0142  139.7130  163.0293 C.ar    1  UNL1        0.0738
     16 C         137.8076  140.8089  162.0262 C.ar    1  UNL1        0.1419
     17 C         138.2147  140.6041  160.5971 C.ar    1  UNL1        0.0416
     18 C         138.8284  139.3034  160.1712 C.ar    1  UNL1        0.0594
     19 C         139.0350  138.2075  161.1743 C.ar    1  UNL1        0.0416
     20 C         139.1671  137.6549  165.0294 C.3     1  UNL1        0.2525
     21 O         138.8346  137.3163  163.6065 O.3     1  UNL1       -0.4713
     22 O         137.1938  142.1096  162.4522 O.3     1  UNL1       -0.4713
     23 C         137.9855  143.3800  162.3549 C.3     1  UNL1        0.2525
     24 C         142.5717  133.4359  154.0299 C.3     1  UNL1        0.1022
     25 C         142.1734  132.0724  154.5117 C.ar    1  UNL1        0.0279
     26 C         140.7864  131.5619  154.2553 C.ar    1  UNL1        0.0001
     27 C         140.3880  130.1984  154.7372 C.ar    1  UNL1       -0.0001
     28 C         141.3766  129.3453  155.4754 C.ar    1  UNL1        0.0031
     29 C         142.7636  129.8558  155.7317 C.ar    1  UNL1        0.0366
     30 C         143.1619  131.2193  155.2499 C.ar    1  UNL1        0.1360
     31 O         144.5490  131.7298  155.5063 O.3     1  UNL1       -0.4717
     32 C         145.0863  131.7704  156.9062 C.3     1  UNL1        0.2525
@<TRIPOS>BOND
     1    20    21    1
     2    21    14    1
     3    14    15   ar
     4    15    16   ar
     5    16    22    1
     6    22    23    1
     7    16    17   ar
     8    17    18   ar
     9    18    10    1
    10    10    11    2
    11    10    12   am
    12    12     9    1
    13     9     1    1
    14     1     7    1
    15     7     8    3
    16     1     2    1
    17     2     3    1
    18     3     4    1
    19     4    24    1
    20    24    25    1
    21    25    26   ar
    22    26    27   ar
    23    27    28   ar
    24    28    29   ar
    25    29    30   ar
    26    30    31    1
    27    31    32    1
    28     4     5    1
    29     5     6    1
    30    18    19   ar
    31    19    14   ar
    32     6     1    1
    33    30    25   ar
    34    12    13    1
@<TRIPOS>MOLECULE
*****
 32 34 0 0 0
SMALL
GASTEIGER

@<TRIPOS>ATOM
      1 C         141.7052  144.6795  161.9292 C.3     1  UNL1        0.1000
      2 C         142.9043  144.0197  162.5428 C.3     1  UNL1        0.0332
      3 C         143.8856  143.2902  161.6740 C.3     1  UNL1        0.0735
      4 N         143.6677  143.2205  160.1915 N.3     1  UNL1       -0.2688
      5 C         142.4685  143.8803  159.5779 C.3     1  UNL1        0.0735
      6 C         141.4872  144.6098  160.4467 C.3     1  UNL1        0.0332
      7 C         140.4275  145.4574  161.8168 C.1     1  UNL1        0.0729
      8 N         139.1499  146.2352  161.7046 N.1     1  UNL1       -0.1959
      9 C         141.4794  145.0194  163.3726 C.3     1  UNL1        0.1037
     10 C         140.1252  143.7188  165.1684 C.2     1  UNL1        0.2461
     11 O         138.9412  144.6048  164.9172 O.2     1  UNL1       -0.2701
     12 N         141.3943  143.9261  164.3961 N.am    1  UNL1       -0.2998
     13 H         142.1714  143.3445  164.5610 H       1  UNL1        0.1498
     14 C         140.4306  141.7781  168.6166 C.ar    1  UNL1        0.1419
     15 C         139.8700  140.4391  168.2389 C.ar    1  UNL1        0.0738
     16 C         139.3944  140.1933  166.8377 C.ar    1  UNL1        0.1419
     17 C         139.4795  141.2865  165.8142 C.ar    1  UNL1        0.0416
     18 C         140.0401  142.6255  166.1919 C.ar    1  UNL1        0.0594
     19 C         140.5157  142.8713  167.5931 C.ar    1  UNL1        0.0416
     20 C         141.3508  140.8735  170.8716 C.3     1  UNL1        0.2525
     21 O         140.9062  142.0239  170.0179 O.3     1  UNL1       -0.4713
     22 O         138.8338  138.8542  166.4600 O.3     1  UNL1       -0.4713
     23 C         137.5530  138.3762  167.0773 C.3     1  UNL1        0.2525
     24 C         144.6490  142.4910  159.3227 C.3     1  UNL1        0.1022
     25 C         144.1923  141.3356  158.4822 C.ar    1  UNL1        0.0279
     26 C         143.3298  140.2656  159.0832 C.ar    1  UNL1        0.0001
     27 C         142.8731  139.1101  158.2426 C.ar    1  UNL1       -0.0001
     28 C         143.2789  139.0248  156.8011 C.ar    1  UNL1        0.0031
     29 C         144.1414  140.0948  156.2001 C.ar    1  UNL1        0.0366
     30 C         144.5981  141.2502  157.0407 C.ar    1  UNL1        0.1360
     31 O         145.4606  142.3202  156.4396 O.3     1  UNL1       -0.4717
     32 C         146.8712  142.0079  156.0363 C.3     1  UNL1        0.2525
@<TRIPOS>BOND
     1    20    21    1
     2    21    14    1
     3    14    15   ar
     4    15    16   ar
     5    16    22    1
     6    22    23    1
     7    16    17   ar
     8    17    18   ar
     9    18    10    1
    10    10    11    2
    11    10    12   am
    12    12     9    1
    13     9     1    1
    14     1     7    1
    15     7     8    3
    16     1     2    1
    17     2     3    1
    18     3     4    1
    19     4    24    1
    20    24    25    1
    21    25    26   ar
    22    26    27   ar
    23    27    28   ar
    24    28    29   ar
    25    29    30   ar
    26    30    31    1
    27    31    32    1
    28     4     5    1
    29     5     6    1
    30    18    19   ar
    31    19    14   ar
    32     6     1    1
    33    30    25   ar
    34    12    13    1
