@<TRIPOS>MOLECULE
*****
 34 39 0 0 0
SMALL
GASTEIGER

@<TRIPOS>ATOM
      1 C         142.0904  140.0041  160.6978 C.3     1  UNL1        0.1161
      2 C         142.5279  139.3750  161.9873 C.3     1  UNL1        0.0510
      3 C         142.2216  140.0484  163.2922 C.2     1  UNL1       -0.0044
      4 C         141.4778  141.3509  163.3075 C.2     1  UNL1        0.0689
      5 N         141.3200  141.7777  164.7368 N.2     1  UNL1       -0.2526
      6 C         141.9663  140.7390  165.6048 C.2     1  UNL1        0.0627
      7 C         142.1194  140.6284  167.0929 C.3     1  UNL1        0.0717
      8 C         142.8297  139.4489  167.6880 C.2     1  UNL1       -0.0198
      9 C         143.3869  138.3801  166.7952 C.2     1  UNL1       -0.0042
     10 C         143.2339  138.4908  165.3072 C.2     1  UNL1        0.0006
     11 C         142.5235  139.6703  164.7120 C.2     1  UNL1        0.0111
     12 C         141.0402  141.9800  162.0180 C.3     1  UNL1        0.0949
     13 N         141.3465  141.3066  160.7131 N.3     1  UNL1       -0.2887
     14 H         141.8967  141.9664  160.1633 H       1  UNL1        0.1239
     15 C         142.5291  137.6706  157.6274 C.ar    1  UNL1        0.0770
     16 C         143.2068  138.9179  157.1426 C.ar    1  UNL1        0.1171
     17 N         143.1250  139.9438  158.2338 N.ar    1  UNL1       -0.2282
     18 C         142.3967  139.3306  159.3929 C.ar    1  UNL1        0.1318
     19 N         142.0284  137.9257  159.0181 N.ar    1  UNL1       -0.3397
     20 H         141.5433  137.2837  159.5854 H       1  UNL1        0.1671
     21 C         143.1626  133.9696  156.3421 C.ar    1  UNL1        0.1388
     22 C         142.0774  133.8365  155.3152 C.ar    1  UNL1        0.0369
     23 C         141.1428  134.9814  155.0590 C.ar    1  UNL1        0.0032
     24 C         141.2934  136.2594  155.8297 C.ar    1  UNL1        0.0017
     25 C         142.3786  136.3925  156.8566 C.ar    1  UNL1        0.0202
     26 C         143.3132  135.2476  157.1129 C.ar    1  UNL1        0.0384
     27 C         144.8495  132.7460  157.8937 C.3     1  UNL1        0.2525
     28 O         144.0972  132.8247  156.5984 O.3     1  UNL1       -0.4714
     29 C         140.2964  143.2825  162.0333 C.3     1  UNL1        0.0252
     30 C         140.8575  144.4750  161.3173 C.3     1  UNL1        0.0339
     31 C         140.1136  145.7775  161.3326 C.3     1  UNL1        0.1422
     32 O         138.8087  145.8874  162.0640 O.3     1  UNL1       -0.3538
     33 C         138.2475  144.6948  162.7801 C.3     1  UNL1        0.1422
     34 C         138.9914  143.3924  162.7648 C.3     1  UNL1        0.0339
@<TRIPOS>BOND
     1    27    28    1
     2    28    21    1
     3    21    22   ar
     4    22    23   ar
     5    23    24   ar
     6    24    25   ar
     7    25    15    1
     8    15    16   ar
     9    16    17   ar
    10    17    18   ar
    11     1    18    1
    12     1     2    1
    13     2     3    1
    14     3     4    2
    15     4     5    1
    16     5     6    2
    17     6     7    1
    18     7     8    1
    19     8     9    2
    20     9    10    1
    21    10    11    2
    22     4    12    1
    23    12    29    1
    24    29    30    1
    25    30    31    1
    26    31    32    1
    27    32    33    1
    28    33    34    1
    29    12    13    1
    30    18    19   ar
    31    25    26   ar
    32    26    21   ar
    33    19    15   ar
    34    13     1    1
    35    11     3    1
    36    34    29    1
    37    11     6    1
    38    13    14    1
    39    19    20    1
@<TRIPOS>MOLECULE
*****
 34 39 0 0 0
SMALL
GASTEIGER

@<TRIPOS>ATOM
      1 C         139.3469  139.7656  157.5475 C.3     1  UNL1        0.1161
      2 C         139.0318  139.6556  159.0099 C.3     1  UNL1        0.0510
      3 C         138.7272  140.8896  159.8064 C.2     1  UNL1       -0.0044
      4 C         138.7376  142.2336  159.1404 C.2     1  UNL1        0.0689
      5 N         138.4005  143.2661  160.1750 N.2     1  UNL1       -0.2526
      6 C         138.1819  142.5602  161.4803 C.2     1  UNL1        0.0627
      7 C         137.8250  143.0651  162.8470 C.3     1  UNL1        0.0717
      8 C         137.6700  142.1012  163.9857 C.2     1  UNL1       -0.0198
      9 C         137.8719  140.6324  163.7579 C.2     1  UNL1       -0.0042
     10 C         138.2288  140.1275  162.3913 C.2     1  UNL1        0.0006
     11 C         138.3838  141.0914  161.2525 C.2     1  UNL1        0.0111
     12 C         139.0526  142.3436  157.6780 C.3     1  UNL1        0.0949
     13 N         139.3572  141.1096  156.8815 N.3     1  UNL1       -0.2887
     14 H         140.2897  141.2360  156.4878 H       1  UNL1        0.1239
     15 C         140.7306  136.5126  155.9446 C.ar    1  UNL1        0.0770
     16 C         139.5101  136.7524  155.1062 C.ar    1  UNL1        0.1171
     17 N         138.8432  138.0001  155.6046 N.ar    1  UNL1       -0.2282
     18 C         139.6515  138.5315  156.7510 C.ar    1  UNL1        0.1318
     19 N         140.8180  137.6122  156.9611 N.ar    1  UNL1       -0.3397
     20 H         141.5180  137.7129  157.6460 H       1  UNL1        0.1671
     21 C         143.5954  133.8905  156.7612 C.ar    1  UNL1        0.1388
     22 C         143.6222  133.0948  155.4899 C.ar    1  UNL1        0.0369
     23 C         142.6852  133.4384  154.3702 C.ar    1  UNL1        0.0032
     24 C         141.7214  134.5777  154.5217 C.ar    1  UNL1        0.0017
     25 C         141.6945  135.3733  155.7931 C.ar    1  UNL1        0.0202
     26 C         142.6315  135.0297  156.9128 C.ar    1  UNL1        0.0384
     27 C         145.2215  132.2146  157.9002 C.3     1  UNL1        0.2525
     28 O         144.5325  133.5468  157.8810 O.3     1  UNL1       -0.4714
     29 C         139.0630  143.6876  157.0120 C.3     1  UNL1        0.0252
     30 C         138.1160  143.9732  155.8845 C.3     1  UNL1        0.0339
     31 C         138.1264  145.3173  155.2185 C.3     1  UNL1        0.1422
     32 O         139.0838  146.3757  155.6802 O.3     1  UNL1       -0.3538
     33 C         140.0308  146.0901  156.8078 C.3     1  UNL1        0.1422
     34 C         140.0204  144.7461  157.4737 C.3     1  UNL1        0.0339
@<TRIPOS>BOND
     1    27    28    1
     2    28    21    1
     3    21    22   ar
     4    22    23   ar
     5    23    24   ar
     6    24    25   ar
     7    25    15    1
     8    15    16   ar
     9    16    17   ar
    10    17    18   ar
    11     1    18    1
    12     1     2    1
    13     2     3    1
    14     3     4    2
    15     4     5    1
    16     5     6    2
    17     6     7    1
    18     7     8    1
    19     8     9    2
    20     9    10    1
    21    10    11    2
    22     4    12    1
    23    12    29    1
    24    29    30    1
    25    30    31    1
    26    31    32    1
    27    32    33    1
    28    33    34    1
    29    12    13    1
    30    18    19   ar
    31    25    26   ar
    32    26    21   ar
    33    19    15   ar
    34    13     1    1
    35    11     3    1
    36    34    29    1
    37    11     6    1
    38    13    14    1
    39    19    20    1
@<TRIPOS>MOLECULE
*****
 34 39 0 0 0
SMALL
GASTEIGER

@<TRIPOS>ATOM
      1 C         142.5408  136.7511  157.6729 C.3     1  UNL1        0.1161
      2 C         143.2714  135.4542  157.4880 C.3     1  UNL1        0.0510
      3 C         142.9095  134.5450  156.3511 C.2     1  UNL1       -0.0044
      4 C         141.8170  134.9327  155.3993 C.2     1  UNL1        0.0689
      5 N         141.6819  133.8412  154.3794 N.2     1  UNL1       -0.2526
      6 C         142.6909  132.7788  154.7009 C.2     1  UNL1        0.0627
      7 C         143.0168  131.4716  154.0414 C.3     1  UNL1        0.0717
      8 C         144.1015  130.5994  154.6006 C.2     1  UNL1       -0.0198
      9 C         144.8602  131.0344  155.8193 C.2     1  UNL1       -0.0042
     10 C         144.5343  132.3416  156.4787 C.2     1  UNL1        0.0006
     11 C         143.4496  133.2138  155.9195 C.2     1  UNL1        0.0111
     12 C         141.0864  136.2296  155.5842 C.3     1  UNL1        0.0949
     13 N         141.4482  137.1388  156.7211 N.3     1  UNL1       -0.2887
     14 H         140.6031  137.2644  157.2782 H       1  UNL1        0.1239
     15 C         143.1822  138.5609  161.0461 C.ar    1  UNL1        0.0770
     16 C         143.7370  139.5578  160.0723 C.ar    1  UNL1        0.1171
     17 N         143.5642  139.0012  158.6902 N.ar    1  UNL1       -0.2282
     18 C         142.9027  137.6604  158.8098 C.ar    1  UNL1        0.1318
     19 N         142.6665  137.3882  160.2658 N.ar    1  UNL1       -0.3397
     20 H         142.2468  136.5815  160.6431 H       1  UNL1        0.1671
     21 C         141.8452  138.5946  164.7826 C.ar    1  UNL1        0.1388
     22 C         143.0823  139.0095  165.5226 C.ar    1  UNL1        0.0369
     23 C         144.3526  139.2750  164.7704 C.ar    1  UNL1        0.0032
     24 C         144.3859  139.1254  163.2783 C.ar    1  UNL1        0.0017
     25 C         143.1488  138.7105  162.5384 C.ar    1  UNL1        0.0202
     26 C         141.8785  138.4450  163.2905 C.ar    1  UNL1        0.0384
     27 C         139.4211  137.6619  164.8466 C.3     1  UNL1        0.2525
     28 O         140.5749  138.3291  165.5349 O.3     1  UNL1       -0.4714
     29 C         139.9938  136.6174  154.6324 C.3     1  UNL1        0.0252
     30 C         140.1860  136.4358  153.1560 C.3     1  UNL1        0.0339
     31 C         139.0934  136.8235  152.2041 C.3     1  UNL1        0.1422
     32 O         137.8087  137.3928  152.7288 O.3     1  UNL1       -0.3538
     33 C         137.6165  137.5744  154.2053 C.3     1  UNL1        0.1422
     34 C         138.7090  137.1867  155.1570 C.3     1  UNL1        0.0339
@<TRIPOS>BOND
     1    27    28    1
     2    28    21    1
     3    21    22   ar
     4    22    23   ar
     5    23    24   ar
     6    24    25   ar
     7    25    15    1
     8    15    16   ar
     9    16    17   ar
    10    17    18   ar
    11     1    18    1
    12     1     2    1
    13     2     3    1
    14     3     4    2
    15     4     5    1
    16     5     6    2
    17     6     7    1
    18     7     8    1
    19     8     9    2
    20     9    10    1
    21    10    11    2
    22     4    12    1
    23    12    29    1
    24    29    30    1
    25    30    31    1
    26    31    32    1
    27    32    33    1
    28    33    34    1
    29    12    13    1
    30    18    19   ar
    31    25    26   ar
    32    26    21   ar
    33    19    15   ar
    34    13     1    1
    35    11     3    1
    36    34    29    1
    37    11     6    1
    38    13    14    1
    39    19    20    1
@<TRIPOS>MOLECULE
*****
 34 39 0 0 0
SMALL
GASTEIGER

@<TRIPOS>ATOM
      1 C         143.1458  139.2944  158.0199 C.3     1  UNL1        0.1161
      2 C         142.3589  140.4716  157.5249 C.3     1  UNL1        0.0510
      3 C         142.1945  141.6829  158.3941 C.2     1  UNL1       -0.0044
      4 C         142.8169  141.7170  159.7585 C.2     1  UNL1        0.0689
      5 N         142.4869  143.0391  160.3855 N.2     1  UNL1       -0.2526
      6 C         141.6605  143.8220  159.4088 C.2     1  UNL1        0.0627
      7 C         141.0492  145.1899  159.4811 C.3     1  UNL1        0.0717
      8 C         140.2572  145.7195  158.3226 C.2     1  UNL1       -0.0198
      9 C         140.0764  144.8813  157.0918 C.2     1  UNL1       -0.0042
     10 C         140.6877  143.5135  157.0195 C.2     1  UNL1        0.0006
     11 C         141.4797  142.9838  158.1780 C.2     1  UNL1        0.0111
     12 C         143.6038  140.5398  160.2535 C.3     1  UNL1        0.0949
     13 N         143.7683  139.3285  159.3843 N.3     1  UNL1       -0.2887
     14 H         143.3836  138.5392  159.9033 H       1  UNL1        0.1239
     15 C         143.0870  135.8400  156.2511 C.ar    1  UNL1        0.0770
     16 C         144.0395  136.5981  155.3748 C.ar    1  UNL1        0.1171
     17 N         144.1776  137.9844  155.9308 N.ar    1  UNL1       -0.2282
     18 C         143.3103  138.0830  157.1506 C.ar    1  UNL1        0.1318
     19 N         142.6362  136.7577  157.3486 N.ar    1  UNL1       -0.3397
     20 H         142.0083  136.5302  158.0719 H       1  UNL1        0.1671
     21 C         142.9494  131.8892  156.6011 C.ar    1  UNL1        0.1388
     22 C         141.8061  131.5632  155.6864 C.ar    1  UNL1        0.0369
     23 C         141.0898  132.6628  154.9600 C.ar    1  UNL1        0.0032
     24 C         141.5167  134.0883  155.1482 C.ar    1  UNL1        0.0017
     25 C         142.6600  134.4143  156.0629 C.ar    1  UNL1        0.0202
     26 C         143.3763  133.3148  156.7893 C.ar    1  UNL1        0.0384
     27 C         144.9569  131.0753  158.0355 C.3     1  UNL1        0.2525
     28 O         143.6657  130.7895  157.3276 O.3     1  UNL1       -0.4714
     29 C         144.2263  140.5740  161.6178 C.3     1  UNL1        0.0252
     30 C         145.0402  141.7605  162.0414 C.3     1  UNL1        0.0339
     31 C         145.6627  141.7946  163.4058 C.3     1  UNL1        0.1422
     32 O         145.4711  140.6421  164.3465 O.3     1  UNL1       -0.3538
     33 C         144.6572  139.4554  163.9229 C.3     1  UNL1        0.1422
     34 C         144.0348  139.4214  162.5587 C.3     1  UNL1        0.0339
@<TRIPOS>BOND
     1    27    28    1
     2    28    21    1
     3    21    22   ar
     4    22    23   ar
     5    23    24   ar
     6    24    25   ar
     7    25    15    1
     8    15    16   ar
     9    16    17   ar
    10    17    18   ar
    11     1    18    1
    12     1     2    1
    13     2     3    1
    14     3     4    2
    15     4     5    1
    16     5     6    2
    17     6     7    1
    18     7     8    1
    19     8     9    2
    20     9    10    1
    21    10    11    2
    22     4    12    1
    23    12    29    1
    24    29    30    1
    25    30    31    1
    26    31    32    1
    27    32    33    1
    28    33    34    1
    29    12    13    1
    30    18    19   ar
    31    25    26   ar
    32    26    21   ar
    33    19    15   ar
    34    13     1    1
    35    11     3    1
    36    34    29    1
    37    11     6    1
    38    13    14    1
    39    19    20    1
@<TRIPOS>MOLECULE
*****
 34 39 0 0 0
SMALL
GASTEIGER

@<TRIPOS>ATOM
      1 C         143.2889  139.9259  158.0217 C.3     1  UNL1        0.1161
      2 C         143.8635  139.9758  159.4063 C.3     1  UNL1        0.0510
      3 C         143.7098  141.2145  160.2381 C.2     1  UNL1       -0.0044
      4 C         142.9813  142.4035  159.6851 C.2     1  UNL1        0.0689
      5 N         142.9873  143.4784  160.7313 N.2     1  UNL1       -0.2526
      6 C         143.7195  142.9538  161.9308 C.2     1  UNL1        0.0627
      7 C         144.0373  143.5694  163.2612 C.3     1  UNL1        0.0717
      8 C         144.8015  142.7858  164.2867 C.2     1  UNL1       -0.0198
      9 C         145.2480  141.3867  163.9819 C.2     1  UNL1       -0.0042
     10 C         144.9302  140.7710  162.6515 C.2     1  UNL1        0.0006
     11 C         144.1660  141.5546  161.6260 C.2     1  UNL1        0.0111
     12 C         142.4067  142.3537  158.3004 C.3     1  UNL1        0.0949
     13 N         142.5605  141.1149  157.4687 N.3     1  UNL1       -0.2887
     14 H         143.0503  141.3906  156.6176 H       1  UNL1        0.1239
     15 C         143.3424  136.3790  156.4464 C.ar    1  UNL1        0.0770
     16 C         144.0162  137.1826  155.3739 C.ar    1  UNL1        0.1171
     17 N         144.0782  138.6091  155.8335 N.ar    1  UNL1       -0.2282
     18 C         143.4427  138.6871  157.1899 C.ar    1  UNL1        0.1318
     19 N         142.9879  137.3088  157.5687 N.ar    1  UNL1       -0.3397
     20 H         142.5361  137.0585  158.4069 H       1  UNL1        0.1671
     21 C         143.6931  132.4808  157.1031 C.ar    1  UNL1        0.1388
     22 C         142.5274  131.9552  156.3190 C.ar    1  UNL1        0.0369
     23 C         141.6333  132.9042  155.5773 C.ar    1  UNL1        0.0032
     24 C         141.9050  134.3788  155.6198 C.ar    1  UNL1        0.0017
     25 C         143.0708  134.9043  156.4039 C.ar    1  UNL1        0.0202
     26 C         143.9648  133.9554  157.1456 C.ar    1  UNL1        0.0384
     27 C         144.2126  130.0839  157.9605 C.3     1  UNL1        0.2525
     28 O         144.5871  131.5317  157.8448 O.3     1  UNL1       -0.4714
     29 C         141.6782  143.5426  157.7475 C.3     1  UNL1        0.0252
     30 C         142.4052  144.8383  157.5414 C.3     1  UNL1        0.0339
     31 C         141.6767  146.0273  156.9884 C.3     1  UNL1        0.1422
     32 O         140.2212  145.9204  156.6416 O.3     1  UNL1       -0.3538
     33 C         139.4943  144.6246  156.8477 C.3     1  UNL1        0.1422
     34 C         140.2227  143.4358  157.4006 C.3     1  UNL1        0.0339
@<TRIPOS>BOND
     1    27    28    1
     2    28    21    1
     3    21    22   ar
     4    22    23   ar
     5    23    24   ar
     6    24    25   ar
     7    25    15    1
     8    15    16   ar
     9    16    17   ar
    10    17    18   ar
    11     1    18    1
    12     1     2    1
    13     2     3    1
    14     3     4    2
    15     4     5    1
    16     5     6    2
    17     6     7    1
    18     7     8    1
    19     8     9    2
    20     9    10    1
    21    10    11    2
    22     4    12    1
    23    12    29    1
    24    29    30    1
    25    30    31    1
    26    31    32    1
    27    32    33    1
    28    33    34    1
    29    12    13    1
    30    18    19   ar
    31    25    26   ar
    32    26    21   ar
    33    19    15   ar
    34    13     1    1
    35    11     3    1
    36    34    29    1
    37    11     6    1
    38    13    14    1
    39    19    20    1
@<TRIPOS>MOLECULE
*****
 34 39 0 0 0
SMALL
GASTEIGER

@<TRIPOS>ATOM
      1 C         140.7344  144.1792  160.4327 C.3     1  UNL1        0.1161
      2 C         140.1537  145.2313  159.5350 C.3     1  UNL1        0.0510
      3 C         140.5751  145.3067  158.0974 C.2     1  UNL1       -0.0044
      4 C         141.5774  144.3300  157.5575 C.2     1  UNL1        0.0689
      5 N         141.7996  144.6473  156.1084 N.2     1  UNL1       -0.2526
      6 C         140.9347  145.8201  155.7527 C.2     1  UNL1        0.0627
      7 C         140.7385  146.5696  154.4683 C.3     1  UNL1        0.0717
      8 C         139.7856  147.7266  154.4132 C.2     1  UNL1       -0.0198
      9 C         139.0288  148.1342  155.6425 C.2     1  UNL1       -0.0042
     10 C         139.2250  147.3847  156.9270 C.2     1  UNL1        0.0006
     11 C         140.1780  146.2277  156.9820 C.2     1  UNL1        0.0111
     12 C         142.1581  143.2779  158.4552 C.3     1  UNL1        0.0949
     13 N         141.7366  143.2025  159.8928 N.3     1  UNL1       -0.2887
     14 H         142.5822  143.3079  160.4534 H       1  UNL1        0.1239
     15 C         139.9301  143.2877  164.1237 C.ar    1  UNL1        0.0770
     16 C         139.3985  144.6879  164.0413 C.ar    1  UNL1        0.1171
     17 N         139.6351  145.1923  162.6486 N.ar    1  UNL1       -0.2282
     18 C         140.3129  144.1038  161.8703 C.ar    1  UNL1        0.1318
     19 N         140.4952  142.9267  162.7819 N.ar    1  UNL1       -0.3397
     20 H         140.9126  142.0680  162.5418 H       1  UNL1        0.1671
     21 C         140.4654  141.9985  167.8387 C.ar    1  UNL1        0.1388
     22 C         139.8445  140.6354  167.7580 C.ar    1  UNL1        0.0369
     23 C         139.2521  140.1564  166.4659 C.ar    1  UNL1        0.0032
     24 C         139.2807  141.0405  165.2545 C.ar    1  UNL1        0.0017
     25 C         139.9016  142.4036  165.3352 C.ar    1  UNL1        0.0202
     26 C         140.4939  142.8826  166.6273 C.ar    1  UNL1        0.0384
     27 C         140.3625  143.5430  169.9253 C.3     1  UNL1        0.2525
     28 O         141.0578  142.4775  169.1309 O.3     1  UNL1       -0.4714
     29 C         143.1603  142.3011  157.9153 C.3     1  UNL1        0.0252
     30 C         144.5948  142.7093  157.7560 C.3     1  UNL1        0.0339
     31 C         145.5971  141.7325  157.2160 C.3     1  UNL1        0.1422
     32 O         145.1647  140.3475  156.8354 O.3     1  UNL1       -0.3538
     33 C         143.7301  139.9393  156.9947 C.3     1  UNL1        0.1422
     34 C         142.7280  140.9161  157.5346 C.3     1  UNL1        0.0339
@<TRIPOS>BOND
     1    27    28    1
     2    28    21    1
     3    21    22   ar
     4    22    23   ar
     5    23    24   ar
     6    24    25   ar
     7    25    15    1
     8    15    16   ar
     9    16    17   ar
    10    17    18   ar
    11     1    18    1
    12     1     2    1
    13     2     3    1
    14     3     4    2
    15     4     5    1
    16     5     6    2
    17     6     7    1
    18     7     8    1
    19     8     9    2
    20     9    10    1
    21    10    11    2
    22     4    12    1
    23    12    29    1
    24    29    30    1
    25    30    31    1
    26    31    32    1
    27    32    33    1
    28    33    34    1
    29    12    13    1
    30    18    19   ar
    31    25    26   ar
    32    26    21   ar
    33    19    15   ar
    34    13     1    1
    35    11     3    1
    36    34    29    1
    37    11     6    1
    38    13    14    1
    39    19    20    1
@<TRIPOS>MOLECULE
*****
 34 39 0 0 0
SMALL
GASTEIGER

@<TRIPOS>ATOM
      1 C         140.5569  144.4249  159.6988 C.3     1  UNL1        0.1161
      2 C         140.0209  145.5088  158.8113 C.3     1  UNL1        0.0510
      3 C         140.4985  145.6223  157.3939 C.2     1  UNL1       -0.0044
      4 C         141.5122  144.6519  156.8641 C.2     1  UNL1        0.0689
      5 N         141.7934  145.0095  155.4348 N.2     1  UNL1       -0.2526
      6 C         140.9535  146.2010  155.0812 C.2     1  UNL1        0.0627
      7 C         140.8140  146.9899  153.8131 C.3     1  UNL1        0.0717
      8 C         139.8742  148.1576  153.7559 C.2     1  UNL1       -0.0198
      9 C         139.0740  148.5364  154.9667 C.2     1  UNL1       -0.0042
     10 C         139.2134  147.7474  156.2348 C.2     1  UNL1        0.0006
     11 C         140.1532  146.5797  156.2920 C.2     1  UNL1        0.0111
     12 C         142.0482  143.5679  157.7517 C.3     1  UNL1        0.0949
     13 N         141.5706  143.4544  159.1690 N.3     1  UNL1       -0.2887
     14 H         142.3946  143.5348  159.7648 H       1  UNL1        0.1239
     15 C         139.6662  143.4615  163.3518 C.ar    1  UNL1        0.0770
     16 C         139.0222  144.8119  163.2429 C.ar    1  UNL1        0.1171
     17 N         139.2775  145.3371  161.8613 N.ar    1  UNL1       -0.2282
     18 C         140.0792  144.3114  161.1163 C.ar    1  UNL1        0.1318
     19 N         140.3195  143.1522  162.0374 N.ar    1  UNL1       -0.3397
     20 H         140.8183  142.3323  161.8179 H       1  UNL1        0.1671
     21 C         138.8199  140.4414  165.7833 C.ar    1  UNL1        0.1388
     22 C         139.6426  140.8049  166.9838 C.ar    1  UNL1        0.0369
     23 C         140.4731  142.0539  166.9736 C.ar    1  UNL1        0.0032
     24 C         140.4809  142.9394  165.7630 C.ar    1  UNL1        0.0017
     25 C         139.6583  142.5759  164.5625 C.ar    1  UNL1        0.0202
     26 C         138.8278  141.3269  164.5727 C.ar    1  UNL1        0.0384
     27 C         137.6928  138.4995  167.0905 C.3     1  UNL1        0.2525
     28 O         137.9894  139.1923  165.7936 O.3     1  UNL1       -0.4714
     29 C         143.0619  142.5975  157.2219 C.3     1  UNL1        0.0252
     30 C         142.6554  141.5641  156.2136 C.3     1  UNL1        0.0339
     31 C         143.6692  140.5937  155.6838 C.3     1  UNL1        0.1422
     32 O         145.0894  140.6567  156.1624 O.3     1  UNL1       -0.3538
     33 C         145.4959  141.6901  157.1707 C.3     1  UNL1        0.1422
     34 C         144.4822  142.6605  157.7004 C.3     1  UNL1        0.0339
@<TRIPOS>BOND
     1    27    28    1
     2    28    21    1
     3    21    22   ar
     4    22    23   ar
     5    23    24   ar
     6    24    25   ar
     7    25    15    1
     8    15    16   ar
     9    16    17   ar
    10    17    18   ar
    11     1    18    1
    12     1     2    1
    13     2     3    1
    14     3     4    2
    15     4     5    1
    16     5     6    2
    17     6     7    1
    18     7     8    1
    19     8     9    2
    20     9    10    1
    21    10    11    2
    22     4    12    1
    23    12    29    1
    24    29    30    1
    25    30    31    1
    26    31    32    1
    27    32    33    1
    28    33    34    1
    29    12    13    1
    30    18    19   ar
    31    25    26   ar
    32    26    21   ar
    33    19    15   ar
    34    13     1    1
    35    11     3    1
    36    34    29    1
    37    11     6    1
    38    13    14    1
    39    19    20    1
@<TRIPOS>MOLECULE
*****
 34 39 0 0 0
SMALL
GASTEIGER

@<TRIPOS>ATOM
      1 C         142.5028  137.1003  157.4753 C.3     1  UNL1        0.1161
      2 C         143.2541  135.8061  157.3723 C.3     1  UNL1        0.0510
      3 C         142.8739  134.7993  156.3275 C.2     1  UNL1       -0.0044
      4 C         141.7424  135.0866  155.3856 C.2     1  UNL1        0.0689
      5 N         141.5966  133.9119  154.4643 N.2     1  UNL1       -0.2526
      6 C         142.6380  132.8986  154.8367 C.2     1  UNL1        0.0627
      7 C         142.9693  131.5473  154.2761 C.3     1  UNL1        0.0717
      8 C         144.0902  130.7445  154.8670 C.2     1  UNL1       -0.0198
      9 C         144.8796  131.2930  156.0185 C.2     1  UNL1       -0.0042
     10 C         144.5483  132.6442  156.5791 C.2     1  UNL1        0.0006
     11 C         143.4274  133.4470  155.9883 C.2     1  UNL1        0.0111
     12 C         140.9911  136.3808  155.4886 C.3     1  UNL1        0.0949
     13 N         141.3712  137.3876  156.5334 N.3     1  UNL1       -0.2887
     14 H         140.5427  137.5434  157.1075 H       1  UNL1        0.1239
     15 C         143.1649  139.2209  160.6581 C.ar    1  UNL1        0.0770
     16 C         143.7712  140.0920  159.5981 C.ar    1  UNL1        0.1171
     17 N         143.5969  139.4037  158.2768 N.ar    1  UNL1       -0.2282
     18 C         142.8830  138.1072  158.5202 C.ar    1  UNL1        0.1318
     19 N         142.6160  137.9941  159.9919 N.ar    1  UNL1       -0.3397
     20 H         142.1605  137.2461  160.4416 H       1  UNL1        0.1671
     21 C         143.0750  141.2490  164.0681 C.ar    1  UNL1        0.1388
     22 C         143.0186  140.1281  165.0632 C.ar    1  UNL1        0.0369
     23 C         143.0110  138.7048  164.5900 C.ar    1  UNL1        0.0032
     24 C         143.0597  138.4024  163.1217 C.ar    1  UNL1        0.0017
     25 C         143.1161  139.5233  162.1265 C.ar    1  UNL1        0.0202
     26 C         143.1238  140.9467  162.5997 C.ar    1  UNL1        0.0384
     27 C         144.2289  143.1836  165.3628 C.3     1  UNL1        0.2525
     28 O         143.0826  142.6724  164.5414 O.3     1  UNL1       -0.4714
     29 C         139.8596  136.6681  154.5468 C.3     1  UNL1        0.0252
     30 C         138.5928  137.2842  155.0621 C.3     1  UNL1        0.0339
     31 C         137.4613  137.5716  154.1202 C.3     1  UNL1        0.1422
     32 O         137.5966  137.2428  152.6630 O.3     1  UNL1       -0.3538
     33 C         138.8634  136.6267  152.1476 C.3     1  UNL1        0.1422
     34 C         139.9948  136.3394  153.0894 C.3     1  UNL1        0.0339
@<TRIPOS>BOND
     1    27    28    1
     2    28    21    1
     3    21    22   ar
     4    22    23   ar
     5    23    24   ar
     6    24    25   ar
     7    25    15    1
     8    15    16   ar
     9    16    17   ar
    10    17    18   ar
    11     1    18    1
    12     1     2    1
    13     2     3    1
    14     3     4    2
    15     4     5    1
    16     5     6    2
    17     6     7    1
    18     7     8    1
    19     8     9    2
    20     9    10    1
    21    10    11    2
    22     4    12    1
    23    12    29    1
    24    29    30    1
    25    30    31    1
    26    31    32    1
    27    32    33    1
    28    33    34    1
    29    12    13    1
    30    18    19   ar
    31    25    26   ar
    32    26    21   ar
    33    19    15   ar
    34    13     1    1
    35    11     3    1
    36    34    29    1
    37    11     6    1
    38    13    14    1
    39    19    20    1
@<TRIPOS>MOLECULE
*****
 34 39 0 0 0
SMALL
GASTEIGER

@<TRIPOS>ATOM
      1 C         141.6361  139.6494  160.7272 C.3     1  UNL1        0.1161
      2 C         142.1288  139.0830  162.0258 C.3     1  UNL1        0.0510
      3 C         141.9956  139.8793  163.2900 C.2     1  UNL1       -0.0044
      4 C         141.3697  141.2421  163.2555 C.2     1  UNL1        0.0689
      5 N         141.3737  141.7894  164.6521 N.2     1  UNL1       -0.2526
      6 C         142.0021  140.7649  165.5497 C.2     1  UNL1        0.0627
      7 C         142.2740  140.7545  167.0248 C.3     1  UNL1        0.0717
      8 C         142.9302  139.5636  167.6580 C.2     1  UNL1       -0.0198
      9 C         143.3145  138.3831  166.8162 C.2     1  UNL1       -0.0042
     10 C         143.0427  138.3935  165.3411 C.2     1  UNL1        0.0006
     11 C         142.3865  139.5844  164.7078 C.2     1  UNL1        0.0111
     12 C         140.8770  141.8085  161.9569 C.3     1  UNL1        0.0949
     13 N         141.0102  141.0122  160.6927 N.3     1  UNL1       -0.2887
     14 H         141.5648  141.5747  160.0474 H       1  UNL1        0.1239
     15 C         141.2992  137.8675  157.2955 C.ar    1  UNL1        0.0770
     16 C         142.6491  137.3878  157.7399 C.ar    1  UNL1        0.1171
     17 N         142.9396  137.9968  159.0795 N.ar    1  UNL1       -0.2282
     18 C         141.7693  138.8531  159.4630 C.ar    1  UNL1        0.1318
     19 N         140.7554  138.7732  158.3604 N.ar    1  UNL1       -0.3397
     20 H         139.8858  139.2342  158.3394 H       1  UNL1        0.1671
     21 C         138.4449  137.3247  154.5920 C.ar    1  UNL1        0.1388
     22 C         139.2420  136.7809  153.4436 C.ar    1  UNL1        0.0369
     23 C         140.7248  136.5993  153.5791 C.ar    1  UNL1        0.0032
     24 C         141.4105  136.9615  154.8630 C.ar    1  UNL1        0.0017
     25 C         140.6134  137.5053  156.0115 C.ar    1  UNL1        0.0202
     26 C         139.1306  137.6869  155.8760 C.ar    1  UNL1        0.0384
     27 C         136.3876  138.8809  154.2828 C.3     1  UNL1        0.2525
     28 O         136.9621  137.5063  154.4565 O.3     1  UNL1       -0.4714
     29 C         140.2511  143.1712  161.9224 C.3     1  UNL1        0.0252
     30 C         139.0643  143.4735  162.7883 C.3     1  UNL1        0.0339
     31 C         138.4384  144.8364  162.7538 C.3     1  UNL1        0.1422
     32 O         138.9994  145.8968  161.8534 O.3     1  UNL1       -0.3538
     33 C         140.1863  145.5944  160.9874 C.3     1  UNL1        0.1422
     34 C         140.8121  144.2317  161.0220 C.3     1  UNL1        0.0339
@<TRIPOS>BOND
     1    27    28    1
     2    28    21    1
     3    21    22   ar
     4    22    23   ar
     5    23    24   ar
     6    24    25   ar
     7    25    15    1
     8    15    16   ar
     9    16    17   ar
    10    17    18   ar
    11     1    18    1
    12     1     2    1
    13     2     3    1
    14     3     4    2
    15     4     5    1
    16     5     6    2
    17     6     7    1
    18     7     8    1
    19     8     9    2
    20     9    10    1
    21    10    11    2
    22     4    12    1
    23    12    29    1
    24    29    30    1
    25    30    31    1
    26    31    32    1
    27    32    33    1
    28    33    34    1
    29    12    13    1
    30    18    19   ar
    31    25    26   ar
    32    26    21   ar
    33    19    15   ar
    34    13     1    1
    35    11     3    1
    36    34    29    1
    37    11     6    1
    38    13    14    1
    39    19    20    1
