@<TRIPOS>MOLECULE
*****
 38 41 0 0 0
SMALL
GASTEIGER

@<TRIPOS>ATOM
      1 S         139.3865  139.9905  164.7138 S.O2    1  UNL1        0.0134
      2 O         138.0462  140.1226  164.6210 O.2     1  UNL1       -0.1683
      3 O         140.8736  139.8099  164.6370 O.2     1  UNL1       -0.1683
      4 C         139.4948  140.2563  166.1861 C.3     1  UNL1        0.1845
      5 C         140.0602  141.5745  165.7467 C.3     1  UNL1        0.0313
      6 C         140.3950  142.3678  166.9749 C.3     1  UNL1        0.0024
      7 C         140.0366  141.5400  168.1735 C.3     1  UNL1        0.0048
      8 C         139.6312  140.6014  169.2711 C.3     1  UNL1        0.0172
      9 C         139.7996  141.0073  170.7052 C.3     1  UNL1        0.0686
     10 N         140.3734  142.3518  171.0418 N.3     1  UNL1       -0.2975
     11 C         140.7788  143.2903  169.9442 C.3     1  UNL1        0.0686
     12 C         140.6104  142.8844  168.5100 C.3     1  UNL1        0.0172
     13 C         139.4803  140.2351  167.6859 C.3     1  UNL1        0.0314
     14 H         141.2053  142.1836  171.6076 H       1  UNL1        0.1232
     15 O         139.4333  137.7265  165.8611 O.2     1  UNL1       -0.2713
     16 C         138.9069  138.8827  166.3178 C.2     1  UNL1        0.2644
     17 N         137.5950  138.6925  167.0197 N.am    1  UNL1       -0.1956
     18 O         137.0071  137.3188  167.1514 O.3     1  UNL1       -0.2951
     19 H         137.1198  139.4692  167.3941 H       1  UNL1        0.1823
     20 H         137.5970  136.6731  166.7319 H       1  UNL1        0.2414
     21 C         139.2781  139.7246  163.2416 C.ar    1  UNL1        0.1063
     22 C         138.9839  138.3385  162.7495 C.ar    1  UNL1        0.0215
     23 C         138.8755  138.0726  161.2772 C.ar    1  UNL1        0.0388
     24 C         139.0614  139.1928  160.2971 C.ar    1  UNL1        0.1454
     25 C         139.3556  140.5788  160.7893 C.ar    1  UNL1        0.0388
     26 C         139.4639  140.8447  162.2615 C.ar    1  UNL1        0.0215
     27 O         138.9530  138.9269  158.8249 O.3     1  UNL1       -0.4535
     28 C         140.1037  138.3084  158.0877 C.ar    1  UNL1        0.1455
     29 C         139.8555  137.5191  156.8364 C.ar    1  UNL1        0.0406
     30 C         141.0062  136.9006  156.0993 C.ar    1  UNL1        0.0403
     31 C         142.4049  137.0712  156.6133 C.ar    1  UNL1        0.1470
     32 C         142.6531  137.8604  157.8646 C.ar    1  UNL1        0.0403
     33 C         141.5025  138.4790  158.6017 C.ar    1  UNL1        0.0406
     34 O         143.5555  136.4527  155.8762 O.3     1  UNL1       -0.4045
     35 C         143.5473  134.9845  155.5691 C.3     1  UNL1        0.5753
     36 F         143.5391  133.5163  155.2620 F       1  UNL1       -0.1328
     37 F         143.1189  135.2810  154.1626 F       1  UNL1       -0.1328
     38 F         143.9758  134.6879  156.9757 F       1  UNL1       -0.1328
@<TRIPOS>BOND
     1    15    16    2
     2    16    17   am
     3    17    18    1
     4    16     4    1
     5     4     1    1
     6     1     2    2
     7     1     3    2
     8     1    21    1
     9    21    22   ar
    10    22    23   ar
    11    23    24   ar
    12    24    27    1
    13    27    28    1
    14    28    29   ar
    15    29    30   ar
    16    30    31   ar
    17    31    34    1
    18    34    35    1
    19    35    36    1
    20    35    37    1
    21    35    38    1
    22    31    32   ar
    23    32    33   ar
    24    24    25   ar
    25    25    26   ar
    26     4     5    1
    27     5     6    1
    28     6     7    1
    29     7     8    1
    30     8     9    1
    31     9    10    1
    32    10    11    1
    33    11    12    1
    34     7    13    1
    35    13     4    1
    36    26    21   ar
    37    12     7    1
    38    33    28   ar
    39    17    19    1
    40    18    20    1
    41    10    14    1
@<TRIPOS>MOLECULE
*****
 38 41 0 0 0
SMALL
GASTEIGER

@<TRIPOS>ATOM
      1 S         139.3816  140.6509  165.1691 S.O2    1  UNL1        0.0134
      2 O         138.0421  140.8149  165.2076 O.2     1  UNL1       -0.1683
      3 O         140.8559  140.4890  164.9447 O.2     1  UNL1       -0.1683
      4 C         139.5867  140.4747  166.6445 C.3     1  UNL1        0.1845
      5 C         140.1869  141.8472  166.5655 C.3     1  UNL1        0.0313
      6 C         140.6285  142.2400  167.9442 C.3     1  UNL1        0.0024
      7 C         140.3014  141.1103  168.8752 C.3     1  UNL1        0.0048
      8 C         139.9164  139.9053  169.6812 C.3     1  UNL1        0.0172
      9 C         140.1857  139.8724  171.1564 C.3     1  UNL1        0.0686
     10 N         140.8401  141.0445  171.8257 N.3     1  UNL1       -0.2975
     11 C         141.2252  142.2495  171.0197 C.3     1  UNL1        0.0686
     12 C         140.9558  142.2824  169.5445 C.3     1  UNL1        0.0172
     13 C         139.6575  140.0193  168.0720 C.3     1  UNL1        0.0314
     14 H         141.6944  140.6960  172.2607 H       1  UNL1        0.1232
     15 O         139.3405  138.1850  165.5463 O.2     1  UNL1       -0.2713
     16 C         138.9438  139.1391  166.4151 C.2     1  UNL1        0.2644
     17 N         137.7248  138.7492  167.1973 N.am    1  UNL1       -0.1956
     18 O         137.0819  137.4135  166.9679 O.3     1  UNL1       -0.2951
     19 H         137.3466  139.3699  167.8614 H       1  UNL1        0.1823
     20 H         137.5752  136.9300  166.2869 H       1  UNL1        0.2414
     21 C         139.1764  140.8271  163.6937 C.ar    1  UNL1        0.1063
     22 C         140.2531  140.4184  162.7326 C.ar    1  UNL1        0.0215
     23 C         140.0479  140.5946  161.2572 C.ar    1  UNL1        0.0388
     24 C         138.7660  141.1795  160.7429 C.ar    1  UNL1        0.1454
     25 C         137.6894  141.5882  161.7039 C.ar    1  UNL1        0.0388
     26 C         137.8945  141.4120  163.1793 C.ar    1  UNL1        0.0215
     27 O         138.5608  141.3557  159.2675 O.3     1  UNL1       -0.4535
     28 C         139.0366  142.6056  158.5880 C.ar    1  UNL1        0.1455
     29 C         139.7412  143.6675  159.3791 C.ar    1  UNL1        0.0406
     30 C         140.2170  144.9173  158.6997 C.ar    1  UNL1        0.0403
     31 C         139.9882  145.1052  157.2293 C.ar    1  UNL1        0.1470
     32 C         139.2836  144.0432  156.4381 C.ar    1  UNL1        0.0403
     33 C         138.8078  142.7934  157.1175 C.ar    1  UNL1        0.0406
     34 O         140.4640  146.3549  156.5498 O.3     1  UNL1       -0.4045
     35 C         139.4764  147.2764  155.8974 C.3     1  UNL1        0.5753
     36 F         138.4889  148.1978  155.2449 F       1  UNL1       -0.1328
     37 F         139.0053  147.7278  157.2479 F       1  UNL1       -0.1328
     38 F         139.9476  146.8249  154.5468 F       1  UNL1       -0.1328
@<TRIPOS>BOND
     1    15    16    2
     2    16    17   am
     3    17    18    1
     4    16     4    1
     5     4     1    1
     6     1     2    2
     7     1     3    2
     8     1    21    1
     9    21    22   ar
    10    22    23   ar
    11    23    24   ar
    12    24    27    1
    13    27    28    1
    14    28    29   ar
    15    29    30   ar
    16    30    31   ar
    17    31    34    1
    18    34    35    1
    19    35    36    1
    20    35    37    1
    21    35    38    1
    22    31    32   ar
    23    32    33   ar
    24    24    25   ar
    25    25    26   ar
    26     4     5    1
    27     5     6    1
    28     6     7    1
    29     7     8    1
    30     8     9    1
    31     9    10    1
    32    10    11    1
    33    11    12    1
    34     7    13    1
    35    13     4    1
    36    26    21   ar
    37    12     7    1
    38    33    28   ar
    39    17    19    1
    40    18    20    1
    41    10    14    1
@<TRIPOS>MOLECULE
*****
 38 41 0 0 0
SMALL
GASTEIGER

@<TRIPOS>ATOM
      1 S         140.3820  139.7360  164.0479 S.O2    1  UNL1        0.0134
      2 O         139.6119  138.6335  163.9297 O.2     1  UNL1       -0.1683
      3 O         141.2501  140.9583  163.9966 O.2     1  UNL1       -0.1683
      4 C         140.3331  139.8336  165.5439 C.3     1  UNL1        0.1845
      5 C         141.7850  139.4666  165.4581 C.3     1  UNL1        0.0313
      6 C         142.3321  139.4098  166.8536 C.3     1  UNL1        0.0024
      7 C         141.2182  139.7417  167.8020 C.3     1  UNL1        0.0048
      8 C         140.0126  140.0893  168.6239 C.3     1  UNL1        0.0172
      9 C         140.1161  140.1488  170.1191 C.3     1  UNL1        0.0686
     10 N         141.4252  139.8608  170.7924 N.3     1  UNL1       -0.2975
     11 C         142.6308  139.5132  169.9705 C.3     1  UNL1        0.0686
     12 C         142.5273  139.4537  168.4753 C.3     1  UNL1        0.0172
     13 C         139.9828  140.0036  166.9926 C.3     1  UNL1        0.0314
     14 H         141.2646  139.0774  171.4255 H       1  UNL1        0.1232
     15 O         137.8130  139.5161  165.7844 O.2     1  UNL1       -0.2713
     16 C         138.8915  140.1801  165.3171 C.2     1  UNL1        0.2644
     17 N         138.5291  141.3797  164.4926 N.am    1  UNL1       -0.1956
     18 O         137.0874  141.7261  164.2658 O.3     1  UNL1       -0.2951
     19 H         139.2375  141.9395  164.1002 H       1  UNL1        0.1823
     20 H         136.5243  141.0783  164.7176 H       1  UNL1        0.2414
     21 C         140.4309  139.6384  162.5519 C.ar    1  UNL1        0.1063
     22 C         139.6666  138.5582  161.8454 C.ar    1  UNL1        0.0215
     23 C         139.7155  138.4606  160.3494 C.ar    1  UNL1        0.0388
     24 C         140.5286  139.4432  159.5599 C.ar    1  UNL1        0.1454
     25 C         141.2928  140.5234  160.2664 C.ar    1  UNL1        0.0388
     26 C         141.2439  140.6210  161.7624 C.ar    1  UNL1        0.0215
     27 O         140.5775  139.3457  158.0639 O.3     1  UNL1       -0.4535
     28 C         141.0851  138.0946  157.4100 C.ar    1  UNL1        0.1455
     29 C         140.2633  137.4124  156.3568 C.ar    1  UNL1        0.0406
     30 C         140.7708  136.1614  155.7029 C.ar    1  UNL1        0.0403
     31 C         142.1001  135.5927  156.1023 C.ar    1  UNL1        0.1470
     32 C         142.9219  136.2750  157.1555 C.ar    1  UNL1        0.0403
     33 C         142.4144  137.5259  157.8093 C.ar    1  UNL1        0.0406
     34 O         142.6076  134.3418  155.4485 O.3     1  UNL1       -0.4045
     35 C         142.5581  133.0368  156.1863 C.3     1  UNL1        0.5753
     36 F         142.5087  131.7317  156.9241 F       1  UNL1       -0.1328
     37 F         141.1198  132.8700  155.7950 F       1  UNL1       -0.1328
     38 F         143.9966  133.2035  156.5776 F       1  UNL1       -0.1328
@<TRIPOS>BOND
     1    15    16    2
     2    16    17   am
     3    17    18    1
     4    16     4    1
     5     4     1    1
     6     1     2    2
     7     1     3    2
     8     1    21    1
     9    21    22   ar
    10    22    23   ar
    11    23    24   ar
    12    24    27    1
    13    27    28    1
    14    28    29   ar
    15    29    30   ar
    16    30    31   ar
    17    31    34    1
    18    34    35    1
    19    35    36    1
    20    35    37    1
    21    35    38    1
    22    31    32   ar
    23    32    33   ar
    24    24    25   ar
    25    25    26   ar
    26     4     5    1
    27     5     6    1
    28     6     7    1
    29     7     8    1
    30     8     9    1
    31     9    10    1
    32    10    11    1
    33    11    12    1
    34     7    13    1
    35    13     4    1
    36    26    21   ar
    37    12     7    1
    38    33    28   ar
    39    17    19    1
    40    18    20    1
    41    10    14    1
@<TRIPOS>MOLECULE
*****
 38 41 0 0 0
SMALL
GASTEIGER

@<TRIPOS>ATOM
      1 S         139.8153  143.0543  160.3517 S.O2    1  UNL1        0.0134
      2 O         141.1363  142.7871  160.4299 O.2     1  UNL1       -0.1683
      3 O         138.3283  143.2426  160.4109 O.2     1  UNL1       -0.1683
      4 C         139.8821  143.9582  159.1565 C.3     1  UNL1        0.1845
      5 C         139.2599  142.7965  158.4399 C.3     1  UNL1        0.0313
      6 C         139.0693  143.1858  157.0039 C.3     1  UNL1        0.0024
      7 C         139.5737  144.5881  156.8329 C.3     1  UNL1        0.0048
      8 C         140.1134  145.9875  156.8149 C.3     1  UNL1        0.0172
      9 C         140.1152  146.7743  155.5378 C.3     1  UNL1        0.0686
     10 N         139.5772  146.1616  154.2787 N.3     1  UNL1       -0.2975
     11 C         139.0376  144.7622  154.2967 C.3     1  UNL1        0.0686
     12 C         139.0358  143.9755  155.5738 C.3     1  UNL1        0.0172
     13 C         140.0760  145.0655  158.1633 C.3     1  UNL1        0.0314
     14 H         140.3357  146.1759  153.5969 H       1  UNL1        0.1232
     15 O         141.7883  145.2936  160.2019 O.2     1  UNL1       -0.2713
     16 C         140.4903  144.9310  160.1228 C.2     1  UNL1        0.2644
     17 N         139.6275  145.6153  161.1413 N.am    1  UNL1       -0.1956
     18 O         140.2358  146.5881  162.1075 O.3     1  UNL1       -0.2951
     19 H         138.6620  145.4260  161.1755 H       1  UNL1        0.1823
     20 H         141.1885  146.6584  161.9389 H       1  UNL1        0.2414
     21 C         139.7485  142.1505  161.5469 C.ar    1  UNL1        0.1063
     22 C         140.7301  141.0255  161.6922 C.ar    1  UNL1        0.0215
     23 C         140.6633  140.1217  162.8874 C.ar    1  UNL1        0.0388
     24 C         139.6149  140.3427  163.9373 C.ar    1  UNL1        0.1454
     25 C         138.6335  141.4676  163.7919 C.ar    1  UNL1        0.0388
     26 C         138.7003  142.3715  162.5967 C.ar    1  UNL1        0.0215
     27 O         139.5482  139.4388  165.1325 O.3     1  UNL1       -0.4535
     28 C         140.3294  139.7715  166.3691 C.ar    1  UNL1        0.1455
     29 C         139.6299  140.3407  167.5677 C.ar    1  UNL1        0.0406
     30 C         140.4111  140.6734  168.8042 C.ar    1  UNL1        0.0403
     31 C         141.8918  140.4369  168.8422 C.ar    1  UNL1        0.1470
     32 C         142.5914  139.8677  167.6435 C.ar    1  UNL1        0.0403
     33 C         141.8102  139.5350  166.4070 C.ar    1  UNL1        0.0406
     34 O         142.6730  140.7696  170.0786 O.3     1  UNL1       -0.4045
     35 C         142.9245  142.2025  170.4441 C.3     1  UNL1        0.5753
     36 F         143.1759  143.6354  170.8097 F       1  UNL1       -0.1328
     37 F         144.0336  142.2650  169.4363 F       1  UNL1       -0.1328
     38 F         141.8153  142.1399  171.4520 F       1  UNL1       -0.1328
@<TRIPOS>BOND
     1    15    16    2
     2    16    17   am
     3    17    18    1
     4    16     4    1
     5     4     1    1
     6     1     2    2
     7     1     3    2
     8     1    21    1
     9    21    22   ar
    10    22    23   ar
    11    23    24   ar
    12    24    27    1
    13    27    28    1
    14    28    29   ar
    15    29    30   ar
    16    30    31   ar
    17    31    34    1
    18    34    35    1
    19    35    36    1
    20    35    37    1
    21    35    38    1
    22    31    32   ar
    23    32    33   ar
    24    24    25   ar
    25    25    26   ar
    26     4     5    1
    27     5     6    1
    28     6     7    1
    29     7     8    1
    30     8     9    1
    31     9    10    1
    32    10    11    1
    33    11    12    1
    34     7    13    1
    35    13     4    1
    36    26    21   ar
    37    12     7    1
    38    33    28   ar
    39    17    19    1
    40    18    20    1
    41    10    14    1
@<TRIPOS>MOLECULE
*****
 38 41 0 0 0
SMALL
GASTEIGER

@<TRIPOS>ATOM
      1 S         141.1800  139.4686  164.9795 S.O2    1  UNL1        0.0134
      2 O         141.2245  138.1200  164.9365 O.2     1  UNL1       -0.1683
      3 O         141.0760  140.9597  164.8527 O.2     1  UNL1       -0.1683
      4 C         141.6211  139.6207  166.4051 C.3     1  UNL1        0.1845
      5 C         140.2005  140.0446  166.6344 C.3     1  UNL1        0.0313
      6 C         140.0414  140.3633  168.0915 C.3     1  UNL1        0.0024
      7 C         141.3635  140.1365  168.7628 C.3     1  UNL1        0.0048
      8 C         142.7408  139.8681  169.2930 C.3     1  UNL1        0.0172
      9 C         143.0349  140.0656  170.7505 C.3     1  UNL1        0.0686
     10 N         141.9518  140.5314  171.6779 N.3     1  UNL1       -0.2975
     11 C         140.5746  140.7998  171.1477 C.3     1  UNL1        0.0686
     12 C         140.2804  140.6023  169.6901 C.3     1  UNL1        0.0172
     13 C         142.3398  139.6775  167.7206 C.3     1  UNL1        0.0314
     14 H         142.2793  141.4002  172.1001 H       1  UNL1        0.1232
     15 O         143.5918  138.0162  166.1781 O.2     1  UNL1       -0.2713
     16 C         142.9493  139.1650  165.8779 C.2     1  UNL1        0.2644
     17 N         143.7063  140.0238  164.9087 N.am    1  UNL1       -0.1956
     18 O         145.0346  139.5680  164.3815 O.3     1  UNL1       -0.2951
     19 H         143.3313  140.8866  164.6185 H       1  UNL1        0.1823
     20 H         145.2556  138.7047  164.7647 H       1  UNL1        0.2414
     21 C         140.7390  139.3165  163.5539 C.ar    1  UNL1        0.1063
     22 C         140.0846  138.0444  163.1030 C.ar    1  UNL1        0.0215
     23 C         139.6436  137.8923  161.6774 C.ar    1  UNL1        0.0388
     24 C         139.8569  139.0124  160.7028 C.ar    1  UNL1        0.1454
     25 C         140.5113  140.2845  161.1538 C.ar    1  UNL1        0.0388
     26 C         140.9523  140.4366  162.5794 C.ar    1  UNL1        0.0215
     27 O         139.4159  138.8604  159.2772 O.3     1  UNL1       -0.4535
     28 C         140.3531  138.2798  158.2599 C.ar    1  UNL1        0.1455
     29 C         139.8076  137.6092  157.0341 C.ar    1  UNL1        0.0406
     30 C         140.7448  137.0287  156.0169 C.ar    1  UNL1        0.0403
     31 C         142.2274  137.1188  156.2255 C.ar    1  UNL1        0.1470
     32 C         142.7729  137.7894  157.4514 C.ar    1  UNL1        0.0403
     33 C         141.8358  138.3699  158.4686 C.ar    1  UNL1        0.0406
     34 O         143.1646  136.5383  155.2084 O.3     1  UNL1       -0.4045
     35 C         143.3000  135.0503  155.0762 C.3     1  UNL1        0.5753
     36 F         143.4354  133.5622  154.9442 F       1  UNL1       -0.1328
     37 F         142.5175  135.0926  153.7973 F       1  UNL1       -0.1328
     38 F         144.0824  135.0080  156.3553 F       1  UNL1       -0.1328
@<TRIPOS>BOND
     1    15    16    2
     2    16    17   am
     3    17    18    1
     4    16     4    1
     5     4     1    1
     6     1     2    2
     7     1     3    2
     8     1    21    1
     9    21    22   ar
    10    22    23   ar
    11    23    24   ar
    12    24    27    1
    13    27    28    1
    14    28    29   ar
    15    29    30   ar
    16    30    31   ar
    17    31    34    1
    18    34    35    1
    19    35    36    1
    20    35    37    1
    21    35    38    1
    22    31    32   ar
    23    32    33   ar
    24    24    25   ar
    25    25    26   ar
    26     4     5    1
    27     5     6    1
    28     6     7    1
    29     7     8    1
    30     8     9    1
    31     9    10    1
    32    10    11    1
    33    11    12    1
    34     7    13    1
    35    13     4    1
    36    26    21   ar
    37    12     7    1
    38    33    28   ar
    39    17    19    1
    40    18    20    1
    41    10    14    1
@<TRIPOS>MOLECULE
*****
 38 41 0 0 0
SMALL
GASTEIGER

@<TRIPOS>ATOM
      1 S         139.8651  141.0085  164.7680 S.O2    1  UNL1        0.0134
      2 O         138.5478  141.2946  164.6960 O.2     1  UNL1       -0.1683
      3 O         141.3124  140.6246  164.6778 O.2     1  UNL1       -0.1683
      4 C         140.0889  141.5259  166.1580 C.3     1  UNL1        0.1845
      5 C         139.8533  140.0994  166.5577 C.3     1  UNL1        0.0313
      6 C         139.9710  140.0109  168.0505 C.3     1  UNL1        0.0024
      7 C         140.2794  141.3826  168.5734 C.3     1  UNL1        0.0048
      8 C         140.5835  142.8031  168.9470 C.3     1  UNL1        0.0172
      9 C         140.7838  143.1734  170.3867 C.3     1  UNL1        0.0686
     10 N         140.6799  142.1233  171.4527 N.3     1  UNL1       -0.2975
     11 C         140.3758  140.7028  171.0791 C.3     1  UNL1        0.0686
     12 C         140.1755  140.3325  169.6394 C.3     1  UNL1        0.0172
     13 C         140.3522  142.3190  167.4037 C.3     1  UNL1        0.0314
     14 H         139.9436  142.4239  172.0914 H       1  UNL1        0.1232
     15 O         141.3874  143.2769  164.8322 O.2     1  UNL1       -0.2713
     16 C         140.2777  142.8442  165.4678 C.2     1  UNL1        0.2644
     17 N         139.1585  143.8423  165.4379 N.am    1  UNL1       -0.1956
     18 O         139.3474  145.1606  164.7476 O.3     1  UNL1       -0.2951
     19 H         138.2999  143.6322  165.8713 H       1  UNL1        0.1823
     20 H         140.2426  145.2061  164.3769 H       1  UNL1        0.2414
     21 C         139.6413  140.4911  163.3779 C.ar    1  UNL1        0.1063
     22 C         139.7443  141.4213  162.2058 C.ar    1  UNL1        0.0215
     23 C         139.5204  140.9039  160.8158 C.ar    1  UNL1        0.0388
     24 C         139.1937  139.4562  160.5979 C.ar    1  UNL1        0.1454
     25 C         139.0907  138.5261  161.7701 C.ar    1  UNL1        0.0388
     26 C         139.3145  139.0435  163.1601 C.ar    1  UNL1        0.0215
     27 O         138.9698  138.9388  159.2079 O.3     1  UNL1       -0.4535
     28 C         140.1106  138.3444  158.4361 C.ar    1  UNL1        0.1455
     29 C         141.5078  138.4341  158.9744 C.ar    1  UNL1        0.0406
     30 C         142.6485  137.8398  158.2027 C.ar    1  UNL1        0.0403
     31 C         142.3919  137.1558  156.8926 C.ar    1  UNL1        0.1470
     32 C         140.9947  137.0661  156.3543 C.ar    1  UNL1        0.0403
     33 C         139.8540  137.6605  157.1260 C.ar    1  UNL1        0.0406
     34 O         143.5325  136.5615  156.1208 O.3     1  UNL1       -0.4045
     35 C         143.5406  135.0953  155.8041 C.3     1  UNL1        0.5753
     36 F         143.5487  133.6292  155.4872 F       1  UNL1       -0.1328
     37 F         143.7895  134.7842  157.2501 F       1  UNL1       -0.1328
     38 F         143.2917  135.4065  154.3580 F       1  UNL1       -0.1328
@<TRIPOS>BOND
     1    15    16    2
     2    16    17   am
     3    17    18    1
     4    16     4    1
     5     4     1    1
     6     1     2    2
     7     1     3    2
     8     1    21    1
     9    21    22   ar
    10    22    23   ar
    11    23    24   ar
    12    24    27    1
    13    27    28    1
    14    28    29   ar
    15    29    30   ar
    16    30    31   ar
    17    31    34    1
    18    34    35    1
    19    35    36    1
    20    35    37    1
    21    35    38    1
    22    31    32   ar
    23    32    33   ar
    24    24    25   ar
    25    25    26   ar
    26     4     5    1
    27     5     6    1
    28     6     7    1
    29     7     8    1
    30     8     9    1
    31     9    10    1
    32    10    11    1
    33    11    12    1
    34     7    13    1
    35    13     4    1
    36    26    21   ar
    37    12     7    1
    38    33    28   ar
    39    17    19    1
    40    18    20    1
    41    10    14    1
@<TRIPOS>MOLECULE
*****
 38 41 0 0 0
SMALL
GASTEIGER

@<TRIPOS>ATOM
      1 S         141.3868  142.0068  164.9521 S.O2    1  UNL1        0.0134
      2 O         141.9587  140.8452  164.5696 O.2     1  UNL1       -0.1683
      3 O         140.7955  143.3609  165.2110 O.2     1  UNL1       -0.1683
      4 C         140.9886  141.5694  166.3305 C.3     1  UNL1        0.1845
      5 C         142.2446  142.2760  166.7469 C.3     1  UNL1        0.0313
      6 C         142.3775  142.1466  168.2354 C.3     1  UNL1        0.0024
      7 C         141.2036  141.3601  168.7390 C.3     1  UNL1        0.0048
      8 C         139.9818  140.5654  169.0933 C.3     1  UNL1        0.0172
      9 C         139.7134  140.1999  170.5231 C.3     1  UNL1        0.0686
     10 N         140.6669  140.6290  171.5986 N.3     1  UNL1       -0.2975
     11 C         141.8887  141.4237  171.2443 C.3     1  UNL1        0.0686
     12 C         142.1571  141.7892  169.8145 C.3     1  UNL1        0.0172
     13 C         140.3453  141.0033  167.5617 C.3     1  UNL1        0.0314
     14 H         140.9918  139.7794  172.0602 H       1  UNL1        0.1232
     15 O         138.7713  141.6029  165.0689 O.2     1  UNL1       -0.2713
     16 C         139.8160  140.9542  165.6261 C.2     1  UNL1        0.2644
     17 N         139.7229  139.4638  165.4853 N.am    1  UNL1       -0.1956
     18 O         138.5501  138.8487  164.7808 O.3     1  UNL1       -0.2951
     19 H         140.4316  138.8892  165.8553 H       1  UNL1        0.1823
     20 H         137.9500  139.5489  164.4801 H       1  UNL1        0.2414
     21 C         141.7850  142.4442  163.5736 C.ar    1  UNL1        0.1063
     22 C         141.9649  143.9026  163.2723 C.ar    1  UNL1        0.0215
     23 C         142.3631  144.3400  161.8939 C.ar    1  UNL1        0.0388
     24 C         142.5813  143.3190  160.8168 C.ar    1  UNL1        0.1454
     25 C         142.4014  141.8608  161.1182 C.ar    1  UNL1        0.0388
     26 C         142.0032  141.4233  162.4966 C.ar    1  UNL1        0.0215
     27 O         142.9795  143.7564  159.4384 O.3     1  UNL1       -0.4535
     28 C         141.9661  144.3865  158.5294 C.ar    1  UNL1        0.1455
     29 C         140.5761  143.8278  158.4541 C.ar    1  UNL1        0.0406
     30 C         139.5627  144.4578  157.5451 C.ar    1  UNL1        0.0403
     31 C         139.9394  145.6466  156.7116 C.ar    1  UNL1        0.1470
     32 C         141.3294  146.2054  156.7869 C.ar    1  UNL1        0.0403
     33 C         142.3428  145.5753  157.6958 C.ar    1  UNL1        0.0406
     34 O         138.9261  146.2767  155.8027 O.3     1  UNL1       -0.4045
     35 C         138.9559  147.7561  155.5572 C.3     1  UNL1        0.5753
     36 F         138.9858  149.2356  155.3116 F       1  UNL1       -0.1328
     37 F         138.6194  148.0021  156.9980 F       1  UNL1       -0.1328
     38 F         139.2925  147.5102  154.1163 F       1  UNL1       -0.1328
@<TRIPOS>BOND
     1    15    16    2
     2    16    17   am
     3    17    18    1
     4    16     4    1
     5     4     1    1
     6     1     2    2
     7     1     3    2
     8     1    21    1
     9    21    22   ar
    10    22    23   ar
    11    23    24   ar
    12    24    27    1
    13    27    28    1
    14    28    29   ar
    15    29    30   ar
    16    30    31   ar
    17    31    34    1
    18    34    35    1
    19    35    36    1
    20    35    37    1
    21    35    38    1
    22    31    32   ar
    23    32    33   ar
    24    24    25   ar
    25    25    26   ar
    26     4     5    1
    27     5     6    1
    28     6     7    1
    29     7     8    1
    30     8     9    1
    31     9    10    1
    32    10    11    1
    33    11    12    1
    34     7    13    1
    35    13     4    1
    36    26    21   ar
    37    12     7    1
    38    33    28   ar
    39    17    19    1
    40    18    20    1
    41    10    14    1
@<TRIPOS>MOLECULE
*****
 38 41 0 0 0
SMALL
GASTEIGER

@<TRIPOS>ATOM
      1 S         142.6877  140.1986  164.2630 S.O2    1  UNL1        0.0134
      2 O         143.8892  139.6091  164.0860 O.2     1  UNL1       -0.1683
      3 O         141.3433  140.8639  164.2771 O.2     1  UNL1       -0.1683
      4 C         142.6820  140.1556  165.7623 C.3     1  UNL1        0.1845
      5 C         142.8120  141.6457  165.6488 C.3     1  UNL1        0.0313
      6 C         142.8598  142.2139  167.0361 C.3     1  UNL1        0.0024
      7 C         142.7593  141.0750  168.0073 C.3     1  UNL1        0.0048
      8 C         142.6507  139.8413  168.8535 C.3     1  UNL1        0.0172
      9 C         142.6587  139.9546  170.3491 C.3     1  UNL1        0.0686
     10 N         142.7753  141.3017  170.9986 N.3     1  UNL1       -0.2975
     11 C         142.8838  142.5354  170.1524 C.3     1  UNL1        0.0686
     12 C         142.8759  142.4221  168.6567 C.3     1  UNL1        0.0172
     13 C         142.6494  139.8029  167.2200 C.3     1  UNL1        0.0314
     14 H         143.6081  141.2739  171.5868 H       1  UNL1        0.1232
     15 O         143.4039  137.7195  165.9946 O.2     1  UNL1       -0.2713
     16 C         142.5532  138.6746  165.5626 C.2     1  UNL1        0.2644
     17 N         141.3799  138.1182  164.8119 N.am    1  UNL1       -0.1956
     18 O         141.2512  136.6371  164.6122 O.3     1  UNL1       -0.2951
     19 H         140.6942  138.7251  164.4502 H       1  UNL1        0.1823
     20 H         142.0042  136.1882  165.0274 H       1  UNL1        0.2414
     21 C         142.6933  140.2416  162.7636 C.ar    1  UNL1        0.1063
     22 C         143.9488  139.9189  162.0088 C.ar    1  UNL1        0.0215
     23 C         143.9544  139.9620  160.5095 C.ar    1  UNL1        0.0388
     24 C         142.7047  140.3277  159.7649 C.ar    1  UNL1        0.1454
     25 C         141.4493  140.6503  160.5198 C.ar    1  UNL1        0.0388
     26 C         141.4437  140.6073  162.0191 C.ar    1  UNL1        0.0215
     27 O         142.7103  140.3707  158.2656 O.3     1  UNL1       -0.4535
     28 C         143.0106  139.1281  157.4807 C.ar    1  UNL1        0.1455
     29 C         142.5110  137.7981  157.9617 C.ar    1  UNL1        0.0406
     30 C         142.8113  136.5556  157.1769 C.ar    1  UNL1        0.0403
     31 C         143.6112  136.6431  155.9111 C.ar    1  UNL1        0.1470
     32 C         144.1108  137.9731  155.4300 C.ar    1  UNL1        0.0403
     33 C         143.8106  139.2156  156.2148 C.ar    1  UNL1        0.0406
     34 O         143.9115  135.4006  155.1262 O.3     1  UNL1       -0.4045
     35 C         142.7900  134.5877  154.5506 C.3     1  UNL1        0.5753
     36 F         141.6684  133.7749  153.9748 F       1  UNL1       -0.1328
     37 F         142.9984  133.5484  155.6118 F       1  UNL1       -0.1328
     38 F         142.5815  135.6271  153.4893 F       1  UNL1       -0.1328
@<TRIPOS>BOND
     1    15    16    2
     2    16    17   am
     3    17    18    1
     4    16     4    1
     5     4     1    1
     6     1     2    2
     7     1     3    2
     8     1    21    1
     9    21    22   ar
    10    22    23   ar
    11    23    24   ar
    12    24    27    1
    13    27    28    1
    14    28    29   ar
    15    29    30   ar
    16    30    31   ar
    17    31    34    1
    18    34    35    1
    19    35    36    1
    20    35    37    1
    21    35    38    1
    22    31    32   ar
    23    32    33   ar
    24    24    25   ar
    25    25    26   ar
    26     4     5    1
    27     5     6    1
    28     6     7    1
    29     7     8    1
    30     8     9    1
    31     9    10    1
    32    10    11    1
    33    11    12    1
    34     7    13    1
    35    13     4    1
    36    26    21   ar
    37    12     7    1
    38    33    28   ar
    39    17    19    1
    40    18    20    1
    41    10    14    1
@<TRIPOS>MOLECULE
*****
 38 41 0 0 0
SMALL
GASTEIGER

@<TRIPOS>ATOM
      1 S         139.6710  141.7001  164.8715 S.O2    1  UNL1        0.0134
      2 O         140.8225  141.1515  164.4292 O.2     1  UNL1       -0.1683
      3 O         138.3673  142.3694  165.1916 O.2     1  UNL1       -0.1683
      4 C         139.7902  141.2504  166.2975 C.3     1  UNL1        0.1845
      5 C         140.3129  142.6377  166.5264 C.3     1  UNL1        0.0313
      6 C         140.6406  142.7749  167.9837 C.3     1  UNL1        0.0024
      7 C         140.3205  141.4725  168.6555 C.3     1  UNL1        0.0048
      8 C         139.9553  140.1179  169.1863 C.3     1  UNL1        0.0172
      9 C         140.1301  139.8115  170.6442 C.3     1  UNL1        0.0686
     10 N         140.6701  140.8597  171.5714 N.3     1  UNL1       -0.2975
     11 C         141.0353  142.2143  171.0406 C.3     1  UNL1        0.0686
     12 C         140.8605  142.5207  169.5827 C.3     1  UNL1        0.0172
     13 C         139.7950  140.5303  167.6134 C.3     1  UNL1        0.0314
     14 H         141.5133  140.4722  171.9947 H       1  UNL1        0.1232
     15 O         137.9722  139.7089  165.3874 O.2     1  UNL1       -0.2713
     16 C         139.2427  139.9572  165.7706 C.2     1  UNL1        0.2644
     17 N         140.1422  138.7657  165.6249 N.am    1  UNL1       -0.1956
     18 O         139.5945  137.4725  165.0979 O.3     1  UNL1       -0.2951
     19 H         141.0920  138.8324  165.8751 H       1  UNL1        0.1823
     20 H         138.6504  137.5773  164.9014 H       1  UNL1        0.2414
     21 C         139.5519  142.1498  163.4455 C.ar    1  UNL1        0.1063
     22 C         138.2489  142.6910  162.9361 C.ar    1  UNL1        0.0215
     23 C         138.1297  143.1407  161.5101 C.ar    1  UNL1        0.0388
     24 C         139.3135  143.0492  160.5934 C.ar    1  UNL1        0.1454
     25 C         140.6164  142.5081  161.1028 C.ar    1  UNL1        0.0388
     26 C         140.7356  142.0584  162.5288 C.ar    1  UNL1        0.0215
     27 O         139.1943  143.4990  159.1674 O.3     1  UNL1       -0.4535
     28 C         138.3942  142.6897  158.1901 C.ar    1  UNL1        0.1455
     29 C         137.8927  143.3222  156.9258 C.ar    1  UNL1        0.0406
     30 C         137.0927  142.5130  155.9485 C.ar    1  UNL1        0.0403
     31 C         136.7940  141.0714  156.2355 C.ar    1  UNL1        0.1470
     32 C         137.2955  140.4389  157.4999 C.ar    1  UNL1        0.0403
     33 C         138.0956  141.2480  158.4772 C.ar    1  UNL1        0.0406
     34 O         135.9940  140.2622  155.2583 O.3     1  UNL1       -0.4045
     35 C         134.6049  140.6911  154.8892 C.3     1  UNL1        0.5753
     36 F         133.2157  141.1201  154.5201 F       1  UNL1       -0.1328
     37 F         134.9804  140.6583  153.4374 F       1  UNL1       -0.1328
     38 F         134.2293  140.7240  156.3410 F       1  UNL1       -0.1328
@<TRIPOS>BOND
     1    15    16    2
     2    16    17   am
     3    17    18    1
     4    16     4    1
     5     4     1    1
     6     1     2    2
     7     1     3    2
     8     1    21    1
     9    21    22   ar
    10    22    23   ar
    11    23    24   ar
    12    24    27    1
    13    27    28    1
    14    28    29   ar
    15    29    30   ar
    16    30    31   ar
    17    31    34    1
    18    34    35    1
    19    35    36    1
    20    35    37    1
    21    35    38    1
    22    31    32   ar
    23    32    33   ar
    24    24    25   ar
    25    25    26   ar
    26     4     5    1
    27     5     6    1
    28     6     7    1
    29     7     8    1
    30     8     9    1
    31     9    10    1
    32    10    11    1
    33    11    12    1
    34     7    13    1
    35    13     4    1
    36    26    21   ar
    37    12     7    1
    38    33    28   ar
    39    17    19    1
    40    18    20    1
    41    10    14    1
