@<TRIPOS>MOLECULE
*****
 35 38 0 0 0
SMALL
GASTEIGER

@<TRIPOS>ATOM
      1 C         140.1734  139.8497  160.5261 C.ar    1  UNL1        0.1665
      2 N         139.5407  139.1946  161.7179 N.ar    1  UNL1       -0.1866
      3 C         139.0619  140.0310  162.8673 C.ar    1  UNL1        0.2814
      4 O         138.4292  139.3759  164.0592 O.2     1  UNL1       -0.2651
      5 C         139.2156  141.5225  162.8248 C.ar    1  UNL1        0.0699
      6 C         138.7367  142.3589  163.9742 C.ar    1  UNL1        0.0096
      7 C         138.8905  143.8504  163.9317 C.ar    1  UNL1        0.0777
      8 C         139.5231  144.5055  162.7398 C.ar    1  UNL1        0.0797
      9 C         140.0020  143.6691  161.5904 C.ar    1  UNL1        0.2960
     10 C         139.8483  142.1776  161.6329 C.ar    1  UNL1        0.1059
     11 S         140.3271  141.3412  160.4835 S.2     1  UNL1       -0.0466
     12 N         141.6100  137.3406  157.0778 N.3     1  UNL1       -0.2698
     13 C         140.1546  137.6821  157.2017 C.3     1  UNL1        0.0939
     14 C         139.6758  138.5185  158.3511 C.3     1  UNL1        0.1100
     15 N         140.6523  139.0133  159.3766 N.pl3   1  UNL1       -0.2852
     16 C         142.1076  138.6718  159.2527 C.3     1  UNL1        0.1100
     17 C         142.5865  137.8354  158.1032 C.3     1  UNL1        0.0939
     18 C         142.0889  136.5042  155.9284 C.3     1  UNL1        0.0722
     19 N         142.9748  130.6162  156.6670 N.2     1  UNL1       -0.0918
     20 C         142.7533  132.0882  156.4824 C.2     1  UNL1        0.0748
     21 C         143.5806  133.0736  157.2534 C.3     1  UNL1        0.0447
     22 C         143.3591  134.5457  157.0687 C.3     1  UNL1        0.0074
     23 C         142.3104  135.0322  156.1130 C.3     1  UNL1        0.0167
     24 C         141.4831  134.0467  155.3420 C.3     1  UNL1        0.0074
     25 C         141.7046  132.5747  155.5267 C.3     1  UNL1        0.0447
     26 O         144.0236  130.1296  157.6227 O.2     1  UNL1       -0.3779
     27 C         143.1060  128.5195  159.4436 C.3     1  UNL1        0.0543
     28 C         143.9239  128.7520  158.2080 C.3     1  UNL1        0.2386
     29 C         138.4116  144.6868  165.0811 C.3     1  UNL1        0.4188
     30 F         137.9328  145.5233  166.2305 F       1  UNL1       -0.1659
     31 F         139.7482  145.3646  165.1447 F       1  UNL1       -0.1659
     32 F         137.0750  144.0090  165.0175 F       1  UNL1       -0.1659
     33 N         140.6346  144.3242  160.3985 N.pl3   1  UNL1        0.0814
     34 O         139.8050  144.6453  159.1907 O.2     1  UNL1        0.0415
     35 O         142.0969  144.6582  160.4144 O.co2   1  UNL1       -0.5760
@<TRIPOS>UNITY_ATOM_ATTR
33 1
charge 1
35 1
charge -1
@<TRIPOS>BOND
     1    27    28    1
     2    28    26    1
     3    26    19    1
     4    19    20    2
     5    20    21    1
     6    21    22    1
     7    22    23    1
     8    23    18    1
     9    18    12    1
    10    12    13    1
    11    13    14    1
    12    14    15    1
    13    15     1    1
    14     1     2   ar
    15     2     3   ar
    16     3     4    2
    17     3     5   ar
    18     5     6   ar
    19     6     7   ar
    20     7    29    1
    21    29    30    1
    22    29    31    1
    23    29    32    1
    24     7     8   ar
    25     8     9   ar
    26     9    33    1
    27    33    34    2
    28    33    35    1
    29     9    10   ar
    30    10    11   ar
    31    15    16    1
    32    16    17    1
    33    23    24    1
    34    24    25    1
    35    25    20    1
    36    17    12    1
    37    11     1   ar
    38    10     5   ar
@<TRIPOS>MOLECULE
*****
 35 38 0 0 0
SMALL
GASTEIGER

@<TRIPOS>ATOM
      1 C         140.1770  139.9435  160.5105 C.ar    1  UNL1        0.1665
      2 N         139.5445  139.2761  161.6956 N.ar    1  UNL1       -0.1866
      3 C         139.0688  140.1003  162.8551 C.ar    1  UNL1        0.2814
      4 O         138.4363  139.4329  164.0403 O.2     1  UNL1       -0.2651
      5 C         139.2256  141.5918  162.8295 C.ar    1  UNL1        0.0699
      6 C         138.7499  142.4160  163.9890 C.ar    1  UNL1        0.0096
      7 C         138.9067  143.9076  163.9634 C.ar    1  UNL1        0.0777
      8 C         139.5392  144.5750  162.7782 C.ar    1  UNL1        0.0797
      9 C         140.0149  143.7508  161.6187 C.ar    1  UNL1        0.2960
     10 C         139.8581  142.2592  161.6444 C.ar    1  UNL1        0.1059
     11 S         140.3338  141.4351  160.4849 S.2     1  UNL1       -0.0466
     12 N         141.6042  137.4710  157.0319 N.3     1  UNL1       -0.2698
     13 C         142.5943  138.0355  158.0073 C.3     1  UNL1        0.0939
     14 C         142.1186  138.8596  159.1668 C.3     1  UNL1        0.1100
     15 N         140.6527  139.1193  159.3510 N.pl3   1  UNL1       -0.2852
     16 C         139.6627  138.5549  158.3757 C.3     1  UNL1        0.1100
     17 C         140.1384  137.7307  157.2162 C.3     1  UNL1        0.0939
     18 C         142.0800  136.6469  155.8725 C.3     1  UNL1        0.0722
     19 N         142.7661  130.7181  156.4873 N.2     1  UNL1       -0.0918
     20 C         142.5946  132.2003  156.3336 C.2     1  UNL1        0.0748
     21 C         141.6026  132.7422  155.3475 C.3     1  UNL1        0.0447
     22 C         141.4311  134.2244  155.1938 C.3     1  UNL1        0.0074
     23 C         142.2515  135.1647  156.0262 C.3     1  UNL1        0.0167
     24 C         143.2435  134.6227  157.0123 C.3     1  UNL1        0.0074
     25 C         143.4150  133.1405  157.1659 C.3     1  UNL1        0.0447
     26 O         141.9456  129.7778  155.6549 O.2     1  UNL1       -0.3779
     27 C         143.7521  129.8245  153.7882 C.3     1  UNL1        0.0543
     28 C         142.4943  129.2450  154.3644 C.3     1  UNL1        0.2386
     29 C         138.4310  144.7318  165.1228 C.3     1  UNL1        0.4188
     30 F         137.9552  145.5560  166.2824 F       1  UNL1       -0.1659
     31 F         137.0585  144.1444  164.9772 F       1  UNL1       -0.1659
     32 F         139.8035  145.3191  165.2684 F       1  UNL1       -0.1659
     33 N         140.6474  144.4182  160.4336 N.pl3   1  UNL1        0.0814
     34 O         142.1235  144.6849  160.4223 O.2     1  UNL1        0.0415
     35 O         139.8039  144.8189  159.2598 O.co2   1  UNL1       -0.5760
@<TRIPOS>UNITY_ATOM_ATTR
33 1
charge 1
35 1
charge -1
@<TRIPOS>BOND
     1    27    28    1
     2    28    26    1
     3    26    19    1
     4    19    20    2
     5    20    21    1
     6    21    22    1
     7    22    23    1
     8    23    18    1
     9    18    12    1
    10    12    13    1
    11    13    14    1
    12    14    15    1
    13    15     1    1
    14     1     2   ar
    15     2     3   ar
    16     3     4    2
    17     3     5   ar
    18     5     6   ar
    19     6     7   ar
    20     7    29    1
    21    29    30    1
    22    29    31    1
    23    29    32    1
    24     7     8   ar
    25     8     9   ar
    26     9    33    1
    27    33    34    2
    28    33    35    1
    29     9    10   ar
    30    10    11   ar
    31    15    16    1
    32    16    17    1
    33    23    24    1
    34    24    25    1
    35    25    20    1
    36    17    12    1
    37    11     1   ar
    38    10     5   ar
@<TRIPOS>MOLECULE
*****
 35 38 0 0 0
SMALL
GASTEIGER

@<TRIPOS>ATOM
      1 C         140.4284  138.8808  162.4984 C.ar    1  UNL1        0.1665
      2 N         139.6243  137.8984  163.2973 N.ar    1  UNL1       -0.1866
      3 C         139.3232  138.1737  164.7408 C.ar    1  UNL1        0.2814
      4 O         138.5190  137.1913  165.5398 O.2     1  UNL1       -0.2651
      5 C         139.8262  139.4313  165.3852 C.ar    1  UNL1        0.0699
      6 C         139.5250  139.7065  166.8288 C.ar    1  UNL1        0.0096
      7 C         140.0280  140.9642  167.4732 C.ar    1  UNL1        0.0777
      8 C         140.8321  141.9466  166.6742 C.ar    1  UNL1        0.0797
      9 C         141.1332  141.6713  165.2308 C.ar    1  UNL1        0.2960
     10 C         140.6303  140.4137  164.5863 C.ar    1  UNL1        0.1059
     11 S         140.9314  140.1384  163.1429 S.2     1  UNL1       -0.0466
     12 N         141.3318  138.0551  158.1680 N.3     1  UNL1       -0.2698
     13 C         142.4421  138.0680  159.1766 C.3     1  UNL1        0.0939
     14 C         142.1409  138.3432  160.6200 C.3     1  UNL1        0.1100
     15 N         140.7295  138.6055  161.0549 N.pl3   1  UNL1       -0.2852
     16 C         139.6193  138.5926  160.0464 C.3     1  UNL1        0.1100
     17 C         139.9204  138.3174  158.6029 C.3     1  UNL1        0.0939
     18 C         141.6330  137.7798  156.7246 C.3     1  UNL1        0.0722
     19 N         143.1164  132.2360  154.9738 N.2     1  UNL1       -0.0918
     20 C         142.7456  133.6220  155.4114 C.2     1  UNL1        0.0748
     21 C         143.6754  134.4050  156.2902 C.3     1  UNL1        0.0447
     22 C         143.3046  135.7910  156.7279 C.3     1  UNL1        0.0074
     23 C         142.0039  136.3939  156.2869 C.3     1  UNL1        0.0167
     24 C         141.0740  135.6109  155.4081 C.3     1  UNL1        0.0074
     25 C         141.4448  134.2249  154.9704 C.3     1  UNL1        0.0447
     26 O         144.4172  131.6331  155.4148 O.2     1  UNL1       -0.3779
     27 C         144.9840  131.2436  157.9203 C.3     1  UNL1        0.0543
     28 C         144.4577  130.7309  156.6125 C.3     1  UNL1        0.2386
     29 C         139.7269  141.2394  168.9167 C.3     1  UNL1        0.4188
     30 F         139.4258  141.5148  170.3602 F       1  UNL1       -0.1659
     31 F         140.4522  142.5487  168.8183 F       1  UNL1       -0.1659
     32 F         139.0017  139.9301  169.0151 F       1  UNL1       -0.1659
     33 N         141.9373  142.6537  164.4319 N.pl3   1  UNL1        0.0814
     34 O         141.2485  143.7663  163.6986 O.2     1  UNL1        0.0415
     35 O         143.4302  142.5234  164.3661 O.co2   1  UNL1       -0.5760
@<TRIPOS>UNITY_ATOM_ATTR
33 1
charge 1
35 1
charge -1
@<TRIPOS>BOND
     1    27    28    1
     2    28    26    1
     3    26    19    1
     4    19    20    2
     5    20    21    1
     6    21    22    1
     7    22    23    1
     8    23    18    1
     9    18    12    1
    10    12    13    1
    11    13    14    1
    12    14    15    1
    13    15     1    1
    14     1     2   ar
    15     2     3   ar
    16     3     4    2
    17     3     5   ar
    18     5     6   ar
    19     6     7   ar
    20     7    29    1
    21    29    30    1
    22    29    31    1
    23    29    32    1
    24     7     8   ar
    25     8     9   ar
    26     9    33    1
    27    33    34    2
    28    33    35    1
    29     9    10   ar
    30    10    11   ar
    31    15    16    1
    32    16    17    1
    33    23    24    1
    34    24    25    1
    35    25    20    1
    36    17    12    1
    37    11     1   ar
    38    10     5   ar
@<TRIPOS>MOLECULE
*****
 35 38 0 0 0
SMALL
GASTEIGER

@<TRIPOS>ATOM
      1 C         140.8890  139.0630  162.4373 C.ar    1  UNL1        0.1665
      2 N         139.4993  139.6111  162.5733 N.ar    1  UNL1       -0.1866
      3 C         139.0104  140.0930  163.9070 C.ar    1  UNL1        0.2814
      4 O         137.6207  140.6411  164.0431 O.2     1  UNL1       -0.2651
      5 C         139.9111  140.0268  165.1047 C.ar    1  UNL1        0.0699
      6 C         139.4221  140.5087  166.4384 C.ar    1  UNL1        0.0096
      7 C         140.3228  140.4425  167.6360 C.ar    1  UNL1        0.0777
      8 C         141.7124  139.8943  167.5000 C.ar    1  UNL1        0.0797
      9 C         142.2014  139.4125  166.1663 C.ar    1  UNL1        0.2960
     10 C         141.3007  139.4787  164.9687 C.ar    1  UNL1        0.1059
     11 S         141.7896  138.9968  163.6350 S.2     1  UNL1       -0.0466
     12 N         142.3560  137.6173  158.4363 N.3     1  UNL1       -0.2698
     13 C         143.1364  137.3054  159.6788 C.3     1  UNL1        0.0939
     14 C         142.6474  137.7873  161.0124 C.3     1  UNL1        0.1100
     15 N         141.3780  138.5811  161.1036 N.pl3   1  UNL1       -0.2852
     16 C         140.5976  138.8931  159.8612 C.3     1  UNL1        0.1100
     17 C         141.0866  138.4112  158.5275 C.3     1  UNL1        0.0939
     18 C         142.8450  137.1354  157.1027 C.3     1  UNL1        0.0722
     19 N         141.7603  131.4947  155.3691 N.2     1  UNL1       -0.0918
     20 C         142.0315  132.9049  155.8025 C.2     1  UNL1        0.0748
     21 C         143.0292  133.1768  156.8889 C.3     1  UNL1        0.0447
     22 C         143.3005  134.5871  157.3224 C.3     1  UNL1        0.0074
     23 C         142.5738  135.7253  156.6693 C.3     1  UNL1        0.0167
     24 C         141.5760  135.4533  155.5828 C.3     1  UNL1        0.0074
     25 C         141.3048  134.0431  155.1494 C.3     1  UNL1        0.0447
     26 O         142.4869  130.3565  156.0222 O.2     1  UNL1       -0.3779
     27 C         144.7589  129.9009  154.8473 C.3     1  UNL1        0.0543
     28 C         143.3696  129.4618  155.2033 C.3     1  UNL1        0.2386
     29 C         139.8338  140.9243  168.9697 C.3     1  UNL1        0.4188
     30 F         139.3449  141.4062  170.3034 F       1  UNL1       -0.1659
     31 F         140.9446  141.9314  169.0131 F       1  UNL1       -0.1659
     32 F         138.7231  139.9172  168.9264 F       1  UNL1       -0.1659
     33 N         143.5910  138.8644  166.0303 N.pl3   1  UNL1        0.0814
     34 O         144.5240  139.4324  165.0022 O.2     1  UNL1        0.0415
     35 O         144.0477  137.7483  166.9224 O.co2   1  UNL1       -0.5760
@<TRIPOS>UNITY_ATOM_ATTR
33 1
charge 1
35 1
charge -1
@<TRIPOS>BOND
     1    27    28    1
     2    28    26    1
     3    26    19    1
     4    19    20    2
     5    20    21    1
     6    21    22    1
     7    22    23    1
     8    23    18    1
     9    18    12    1
    10    12    13    1
    11    13    14    1
    12    14    15    1
    13    15     1    1
    14     1     2   ar
    15     2     3   ar
    16     3     4    2
    17     3     5   ar
    18     5     6   ar
    19     6     7   ar
    20     7    29    1
    21    29    30    1
    22    29    31    1
    23    29    32    1
    24     7     8   ar
    25     8     9   ar
    26     9    33    1
    27    33    34    2
    28    33    35    1
    29     9    10   ar
    30    10    11   ar
    31    15    16    1
    32    16    17    1
    33    23    24    1
    34    24    25    1
    35    25    20    1
    36    17    12    1
    37    11     1   ar
    38    10     5   ar
@<TRIPOS>MOLECULE
*****
 35 38 0 0 0
SMALL
GASTEIGER

@<TRIPOS>ATOM
      1 C         140.4085  140.5718  159.5628 C.ar    1  UNL1        0.1665
      2 N         140.1982  141.9999  159.1551 N.ar    1  UNL1       -0.1866
      3 C         139.8146  143.0242  160.1816 C.ar    1  UNL1        0.2814
      4 O         139.6043  144.4524  159.7739 O.2     1  UNL1       -0.2651
      5 C         139.6413  142.6203  161.6157 C.ar    1  UNL1        0.0699
      6 C         139.2576  143.6447  162.6423 C.ar    1  UNL1        0.0096
      7 C         139.0843  143.2408  164.0764 C.ar    1  UNL1        0.0777
      8 C         139.2947  141.8126  164.4841 C.ar    1  UNL1        0.0797
      9 C         139.6783  140.7884  163.4576 C.ar    1  UNL1        0.2960
     10 C         139.8516  141.1922  162.0234 C.ar    1  UNL1        0.1059
     11 S         140.2352  140.1680  160.9970 S.2     1  UNL1       -0.0466
     12 N         141.5592  137.4988  156.4833 N.3     1  UNL1       -0.2698
     13 C         140.1456  137.5701  156.9799 C.3     1  UNL1        0.0939
     14 C         139.7620  138.5944  158.0064 C.3     1  UNL1        0.1100
     15 N         140.7921  139.5475  158.5363 N.pl3   1  UNL1       -0.2852
     16 C         142.2057  139.4762  158.0397 C.3     1  UNL1        0.1100
     17 C         142.5893  138.4519  157.0132 C.3     1  UNL1        0.0939
     18 C         141.9428  136.4745  155.4569 C.3     1  UNL1        0.0722
     19 N         143.2474  130.8694  157.1540 N.2     1  UNL1       -0.0918
     20 C         142.9212  132.2707  156.7297 C.2     1  UNL1        0.0748
     21 C         143.6818  133.4261  157.3097 C.3     1  UNL1        0.0447
     22 C         143.3557  134.8275  156.8854 C.3     1  UNL1        0.0074
     23 C         142.2689  135.0733  155.8811 C.3     1  UNL1        0.0167
     24 C         141.5083  133.9177  155.3011 C.3     1  UNL1        0.0074
     25 C         141.8345  132.5165  155.7254 C.3     1  UNL1        0.0447
     26 O         144.3342  130.6236  158.1582 O.2     1  UNL1       -0.3779
     27 C         143.2070  128.5999  159.3347 C.3     1  UNL1        0.0543
     28 C         144.4419  129.2893  158.8352 C.3     1  UNL1        0.2386
     29 C         138.7007  144.2651  165.1029 C.3     1  UNL1        0.4188
     30 F         138.3172  145.2894  166.1295 F       1  UNL1       -0.1659
     31 F         140.0062  144.0466  165.8087 F       1  UNL1       -0.1659
     32 F         137.3953  144.4835  164.3971 F       1  UNL1       -0.1659
     33 N         139.8885  139.3603  163.8653 N.pl3   1  UNL1        0.0814
     34 O         138.7370  138.3991  163.8520 O.2     1  UNL1        0.0415
     35 O         141.2504  138.8932  164.2863 O.co2   1  UNL1       -0.5760
@<TRIPOS>UNITY_ATOM_ATTR
33 1
charge 1
35 1
charge -1
@<TRIPOS>BOND
     1    27    28    1
     2    28    26    1
     3    26    19    1
     4    19    20    2
     5    20    21    1
     6    21    22    1
     7    22    23    1
     8    23    18    1
     9    18    12    1
    10    12    13    1
    11    13    14    1
    12    14    15    1
    13    15     1    1
    14     1     2   ar
    15     2     3   ar
    16     3     4    2
    17     3     5   ar
    18     5     6   ar
    19     6     7   ar
    20     7    29    1
    21    29    30    1
    22    29    31    1
    23    29    32    1
    24     7     8   ar
    25     8     9   ar
    26     9    33    1
    27    33    34    2
    28    33    35    1
    29     9    10   ar
    30    10    11   ar
    31    15    16    1
    32    16    17    1
    33    23    24    1
    34    24    25    1
    35    25    20    1
    36    17    12    1
    37    11     1   ar
    38    10     5   ar
@<TRIPOS>MOLECULE
*****
 35 38 0 0 0
SMALL
GASTEIGER

@<TRIPOS>ATOM
      1 C         142.3404  139.2354  163.6051 C.ar    1  UNL1        0.1665
      2 N         143.3061  138.4759  164.4656 N.ar    1  UNL1       -0.1866
      3 C         143.2474  138.6114  165.9583 C.ar    1  UNL1        0.2814
      4 O         144.2131  137.8519  166.8189 O.2     1  UNL1       -0.2651
      5 C         142.2230  139.5064  166.5904 C.ar    1  UNL1        0.0699
      6 C         142.1643  139.6419  168.0832 C.ar    1  UNL1        0.0096
      7 C         141.1399  140.5369  168.7154 C.ar    1  UNL1        0.0777
      8 C         140.1742  141.2964  167.8547 C.ar    1  UNL1        0.0797
      9 C         140.2329  141.1609  166.3620 C.ar    1  UNL1        0.2960
     10 C         141.2573  140.2659  165.7299 C.ar    1  UNL1        0.1059
     11 S         141.3160  140.1304  164.2372 S.2     1  UNL1       -0.0466
     12 N         142.5164  138.8290  159.1268 N.3     1  UNL1       -0.2698
     13 C         141.2581  138.4759  159.8632 C.3     1  UNL1        0.0939
     14 C         141.1995  138.6114  161.3559 C.3     1  UNL1        0.1100
     15 N         142.3991  139.0999  162.1123 N.pl3   1  UNL1       -0.2852
     16 C         143.6574  139.4530  161.3761 C.3     1  UNL1        0.1100
     17 C         143.7160  139.3176  159.8833 C.3     1  UNL1        0.0939
     18 C         142.5750  138.6935  157.6342 C.3     1  UNL1        0.0722
     19 N         141.4794  133.3866  155.0583 N.2     1  UNL1       -0.0918
     20 C         141.7533  134.7133  155.7022 C.2     1  UNL1        0.0748
     21 C         142.8098  134.8293  156.7606 C.3     1  UNL1        0.0447
     22 C         143.0838  136.1561  157.4046 C.3     1  UNL1        0.0074
     23 C         142.3011  137.3668  156.9902 C.3     1  UNL1        0.0167
     24 C         141.2445  137.2507  155.9318 C.3     1  UNL1        0.0074
     25 C         140.9706  135.9240  155.2878 C.3     1  UNL1        0.0447
     26 O         142.2620  132.1759  155.4727 O.2     1  UNL1       -0.3779
     27 C         144.4694  130.8137  155.3249 C.3     1  UNL1        0.0543
     28 C         143.5063  131.7955  154.7263 C.3     1  UNL1        0.2386
     29 C         141.0812  140.6723  170.2080 C.3     1  UNL1        0.4188
     30 F         141.0226  140.8079  171.7008 F       1  UNL1       -0.1659
     31 F         142.5794  140.7207  170.2626 F       1  UNL1       -0.1659
     32 F         139.5830  140.6240  170.1535 F       1  UNL1       -0.1659
     33 N         139.2672  141.9204  165.5015 N.pl3   1  UNL1        0.0814
     34 O         139.5294  143.3597  165.1703 O.2     1  UNL1        0.0415
     35 O         138.0394  141.2406  164.9721 O.co2   1  UNL1       -0.5760
@<TRIPOS>UNITY_ATOM_ATTR
33 1
charge 1
35 1
charge -1
@<TRIPOS>BOND
     1    27    28    1
     2    28    26    1
     3    26    19    1
     4    19    20    2
     5    20    21    1
     6    21    22    1
     7    22    23    1
     8    23    18    1
     9    18    12    1
    10    12    13    1
    11    13    14    1
    12    14    15    1
    13    15     1    1
    14     1     2   ar
    15     2     3   ar
    16     3     4    2
    17     3     5   ar
    18     5     6   ar
    19     6     7   ar
    20     7    29    1
    21    29    30    1
    22    29    31    1
    23    29    32    1
    24     7     8   ar
    25     8     9   ar
    26     9    33    1
    27    33    34    2
    28    33    35    1
    29     9    10   ar
    30    10    11   ar
    31    15    16    1
    32    16    17    1
    33    23    24    1
    34    24    25    1
    35    25    20    1
    36    17    12    1
    37    11     1   ar
    38    10     5   ar
@<TRIPOS>MOLECULE
*****
 35 38 0 0 0
SMALL
GASTEIGER

@<TRIPOS>ATOM
      1 C         141.7736  140.8952  159.7416 C.ar    1  UNL1        0.1665
      2 N         142.2294  142.3242  159.7260 N.ar    1  UNL1       -0.1866
      3 C         141.6974  143.2922  160.7408 C.ar    1  UNL1        0.2814
      4 O         142.1532  144.7212  160.7254 O.2     1  UNL1       -0.2651
      5 C         140.7095  142.8312  161.7712 C.ar    1  UNL1        0.0699
      6 C         140.1774  143.7992  162.7860 C.ar    1  UNL1        0.0096
      7 C         139.1895  143.3383  163.8164 C.ar    1  UNL1        0.0777
      8 C         138.7337  141.9092  163.8319 C.ar    1  UNL1        0.0797
      9 C         139.2658  140.9412  162.8171 C.ar    1  UNL1        0.2960
     10 C         140.2537  141.4022  161.7867 C.ar    1  UNL1        0.1059
     11 S         140.7857  140.4343  160.7719 S.2     1  UNL1       -0.0466
     12 N         143.3698  137.9912  156.6970 N.3     1  UNL1       -0.2698
     13 C         143.6040  139.4628  156.5247 C.3     1  UNL1        0.0939
     14 C         143.0719  140.4307  157.5396 C.3     1  UNL1        0.1100
     15 N         142.3057  139.9272  158.7267 N.pl3   1  UNL1       -0.2852
     16 C         142.0715  138.4557  158.8990 C.3     1  UNL1        0.1100
     17 C         142.6036  137.4876  157.8842 C.3     1  UNL1        0.0939
     18 C         143.9019  137.0232  155.6822 C.3     1  UNL1        0.0722
     19 N         141.6261  131.4821  155.3404 N.2     1  UNL1       -0.0918
     20 C         142.1951  132.8674  155.4258 C.2     1  UNL1        0.0748
     21 C         143.4563  133.1137  156.1995 C.3     1  UNL1        0.0447
     22 C         144.0252  134.4990  156.2850 C.3     1  UNL1        0.0074
     23 C         143.3330  135.6379  155.5968 C.3     1  UNL1        0.0167
     24 C         142.0717  135.3915  154.8231 C.3     1  UNL1        0.0074
     25 C         141.5028  134.0063  154.7376 C.3     1  UNL1        0.0447
     26 O         142.3184  130.3432  156.0286 O.2     1  UNL1       -0.3779
     27 C         144.7613  129.7519  155.3706 C.3     1  UNL1        0.0543
     28 C         143.2884  129.4866  155.2700 C.3     1  UNL1        0.2386
     29 C         138.6575  144.3062  164.8312 C.3     1  UNL1        0.4188
     30 F         138.1253  145.2742  165.8461 F       1  UNL1       -0.1659
     31 F         137.3759  143.5299  164.8998 F       1  UNL1       -0.1659
     32 F         139.9391  145.0826  164.7626 F       1  UNL1       -0.1659
     33 N         138.8100  139.5123  162.8326 N.pl3   1  UNL1        0.0814
     34 O         139.5183  138.5084  163.6932 O.2     1  UNL1        0.0415
     35 O         137.6459  139.0871  161.9876 O.co2   1  UNL1       -0.5760
@<TRIPOS>UNITY_ATOM_ATTR
33 1
charge 1
35 1
charge -1
@<TRIPOS>BOND
     1    27    28    1
     2    28    26    1
     3    26    19    1
     4    19    20    2
     5    20    21    1
     6    21    22    1
     7    22    23    1
     8    23    18    1
     9    18    12    1
    10    12    13    1
    11    13    14    1
    12    14    15    1
    13    15     1    1
    14     1     2   ar
    15     2     3   ar
    16     3     4    2
    17     3     5   ar
    18     5     6   ar
    19     6     7   ar
    20     7    29    1
    21    29    30    1
    22    29    31    1
    23    29    32    1
    24     7     8   ar
    25     8     9   ar
    26     9    33    1
    27    33    34    2
    28    33    35    1
    29     9    10   ar
    30    10    11   ar
    31    15    16    1
    32    16    17    1
    33    23    24    1
    34    24    25    1
    35    25    20    1
    36    17    12    1
    37    11     1   ar
    38    10     5   ar
@<TRIPOS>MOLECULE
*****
 35 38 0 0 0
SMALL
GASTEIGER

@<TRIPOS>ATOM
      1 C         138.9787  141.3656  162.4801 C.ar    1  UNL1        0.1665
      2 N         138.0590  140.4150  161.7726 N.ar    1  UNL1       -0.1866
      3 C         137.7848  140.5870  160.3080 C.ar    1  UNL1        0.2814
      4 O         136.8651  139.6364  159.6004 O.2     1  UNL1       -0.2651
      5 C         138.4301  141.7097  159.5509 C.ar    1  UNL1        0.0699
      6 C         138.1558  141.8817  158.0862 C.ar    1  UNL1        0.0096
      7 C         138.8012  143.0043  157.3291 C.ar    1  UNL1        0.0777
      8 C         139.7209  143.9549  158.0367 C.ar    1  UNL1        0.0797
      9 C         139.9952  143.7829  159.5013 C.ar    1  UNL1        0.2960
     10 C         139.3498  142.6602  160.2584 C.ar    1  UNL1        0.1059
     11 S         139.6240  142.4882  161.7230 S.2     1  UNL1       -0.0466
     12 N         139.8016  140.8495  166.8741 N.3     1  UNL1       -0.2698
     13 C         140.1999  142.1185  166.1803 C.3     1  UNL1        0.0939
     14 C         139.9256  142.2904  164.7157 C.3     1  UNL1        0.1100
     15 N         139.2530  141.1935  163.9448 N.pl3   1  UNL1       -0.2852
     16 C         138.8546  139.9247  164.6384 C.3     1  UNL1        0.1100
     17 C         139.1289  139.7526  166.1031 C.3     1  UNL1        0.0939
     18 C         140.0759  140.6776  168.3387 C.3     1  UNL1        0.0722
     19 N         144.2860  144.0119  171.0140 N.2     1  UNL1       -0.0918
     20 C         143.2334  143.1783  170.3452 C.2     1  UNL1        0.0748
     21 C         143.6325  142.0716  169.4147 C.3     1  UNL1        0.0447
     22 C         142.5799  141.2379  168.7458 C.3     1  UNL1        0.0074
     23 C         141.1284  141.5111  169.0075 C.3     1  UNL1        0.0167
     24 C         140.7294  142.6180  169.9380 C.3     1  UNL1        0.0074
     25 C         141.7819  143.4515  170.6068 C.3     1  UNL1        0.0447
     26 O         145.7375  143.7387  170.7523 O.2     1  UNL1       -0.3779
     27 C         146.3654  146.0733  171.7039 C.3     1  UNL1        0.0543
     28 C         146.7781  144.7228  171.1980 C.3     1  UNL1        0.2386
     29 C         138.5270  143.1764  155.8645 C.3     1  UNL1        0.4188
     30 F         138.2526  143.3485  154.3998 F       1  UNL1       -0.1659
     31 F         137.0727  143.3918  156.1621 F       1  UNL1       -0.1659
     32 F         139.9812  142.9609  155.5668 F       1  UNL1       -0.1659
     33 N         140.9148  144.7334  160.2088 N.pl3   1  UNL1        0.0814
     34 O         142.3945  144.4873  160.2062 O.2     1  UNL1        0.0415
     35 O         140.3548  145.9302  160.9189 O.co2   1  UNL1       -0.5760
@<TRIPOS>UNITY_ATOM_ATTR
33 1
charge 1
35 1
charge -1
@<TRIPOS>BOND
     1    27    28    1
     2    28    26    1
     3    26    19    1
     4    19    20    2
     5    20    21    1
     6    21    22    1
     7    22    23    1
     8    23    18    1
     9    18    12    1
    10    12    13    1
    11    13    14    1
    12    14    15    1
    13    15     1    1
    14     1     2   ar
    15     2     3   ar
    16     3     4    2
    17     3     5   ar
    18     5     6   ar
    19     6     7   ar
    20     7    29    1
    21    29    30    1
    22    29    31    1
    23    29    32    1
    24     7     8   ar
    25     8     9   ar
    26     9    33    1
    27    33    34    2
    28    33    35    1
    29     9    10   ar
    30    10    11   ar
    31    15    16    1
    32    16    17    1
    33    23    24    1
    34    24    25    1
    35    25    20    1
    36    17    12    1
    37    11     1   ar
    38    10     5   ar
@<TRIPOS>MOLECULE
*****
 35 38 0 0 0
SMALL
GASTEIGER

@<TRIPOS>ATOM
      1 C         142.0626  144.1693  159.2335 C.ar    1  UNL1        0.1665
      2 N         142.1362  144.8220  160.5820 N.ar    1  UNL1       -0.1866
      3 C         142.7103  144.0725  161.7476 C.ar    1  UNL1        0.2814
      4 O         142.7840  144.7252  163.0962 O.2     1  UNL1       -0.2651
      5 C         143.2107  142.6703  161.5647 C.ar    1  UNL1        0.0699
      6 C         143.7848  141.9208  162.7304 C.ar    1  UNL1        0.0096
      7 C         144.2852  140.5186  162.5475 C.ar    1  UNL1        0.0777
      8 C         144.2115  139.8659  161.1989 C.ar    1  UNL1        0.0797
      9 C         143.6374  140.6154  160.0333 C.ar    1  UNL1        0.2960
     10 C         143.1370  142.0176  160.2162 C.ar    1  UNL1        0.1059
     11 S         142.5629  142.7671  159.0506 S.2     1  UNL1       -0.0466
     12 N         140.3402  146.4178  155.7366 N.3     1  UNL1       -0.2698
     13 C         139.6907  146.5163  157.0851 C.3     1  UNL1        0.0939
     14 C         140.2648  145.7669  158.2507 C.3     1  UNL1        0.1100
     15 N         141.4884  144.9188  158.0679 N.pl3   1  UNL1       -0.2852
     16 C         142.1380  144.8202  156.7194 C.3     1  UNL1        0.1100
     17 C         141.5639  145.5698  155.5538 C.3     1  UNL1        0.0939
     18 C         139.7661  147.1673  154.5710 C.3     1  UNL1        0.0722
     19 N         139.4390  153.1564  154.7227 N.2     1  UNL1       -0.0918
     20 C         139.5208  151.6591  154.6848 C.2     1  UNL1        0.0748
     21 C         138.6631  150.8377  155.6011 C.3     1  UNL1        0.0447
     22 C         138.7448  149.3404  155.5632 C.3     1  UNL1        0.0074
     23 C         139.6843  148.6645  154.6090 C.3     1  UNL1        0.0167
     24 C         140.5420  149.4860  153.6926 C.3     1  UNL1        0.0074
     25 C         140.4602  150.9833  153.7306 C.3     1  UNL1        0.0447
     26 O         138.4995  153.8323  155.6770 O.2     1  UNL1       -0.3779
     27 C         137.6014  155.4284  153.8341 C.3     1  UNL1        0.0543
     28 C         137.8231  155.1121  155.2836 C.3     1  UNL1        0.2386
     29 C         144.8593  139.7691  163.7130 C.3     1  UNL1        0.4188
     30 F         145.4334  139.0196  164.8787 F       1  UNL1       -0.1659
     31 F         145.3906  141.0534  164.2772 F       1  UNL1       -0.1659
     32 F         144.3281  138.4848  163.1489 F       1  UNL1       -0.1659
     33 N         143.5637  139.9627  158.6848 N.pl3   1  UNL1        0.0814
     34 O         142.3753  139.1223  158.3222 O.2     1  UNL1        0.0415
     35 O         144.6784  140.1504  157.6988 O.co2   1  UNL1       -0.5760
@<TRIPOS>UNITY_ATOM_ATTR
33 1
charge 1
35 1
charge -1
@<TRIPOS>BOND
     1    27    28    1
     2    28    26    1
     3    26    19    1
     4    19    20    2
     5    20    21    1
     6    21    22    1
     7    22    23    1
     8    23    18    1
     9    18    12    1
    10    12    13    1
    11    13    14    1
    12    14    15    1
    13    15     1    1
    14     1     2   ar
    15     2     3   ar
    16     3     4    2
    17     3     5   ar
    18     5     6   ar
    19     6     7   ar
    20     7    29    1
    21    29    30    1
    22    29    31    1
    23    29    32    1
    24     7     8   ar
    25     8     9   ar
    26     9    33    1
    27    33    34    2
    28    33    35    1
    29     9    10   ar
    30    10    11   ar
    31    15    16    1
    32    16    17    1
    33    23    24    1
    34    24    25    1
    35    25    20    1
    36    17    12    1
    37    11     1   ar
    38    10     5   ar
