@<TRIPOS>MOLECULE
*****
 36 39 0 0 0
SMALL
GASTEIGER

@<TRIPOS>ATOM
      1 C         143.4989  140.2222  162.0237 C.ar    1  UNL1        0.1233
      2 C         142.5028  140.7139  163.0317 C.ar    1  UNL1        0.1180
      3 N         142.6423  139.8761  164.2680 N.ar    1  UNL1       -0.2233
      4 N         143.7246  138.8666  164.0241 N.ar    1  UNL1       -0.0634
      5 N         144.2540  139.0805  162.6370 N.ar    1  UNL1       -0.1287
      6 C         141.8404  140.0220  165.5272 C.3     1  UNL1        0.1827
      7 C         142.5481  140.6749  166.6774 C.3     1  UNL1        0.0339
      8 C         142.0270  140.9629  168.0543 C.3     1  UNL1        0.0041
      9 C         140.6697  140.6690  168.6209 C.3     1  UNL1        0.0216
     10 C         139.4980  140.0146  167.9507 C.3     1  UNL1        0.0937
     11 N         139.3945  139.4924  166.5483 N.am    1  UNL1       -0.2703
     12 C         140.4370  139.4958  165.4698 C.2     1  UNL1        0.2483
     13 O         140.0210  138.8931  164.1607 O.2     1  UNL1       -0.2728
     14 C         142.9908  141.6333  168.9878 C.3     1  UNL1        0.0001
     15 C         143.4397  142.5352  167.8764 C.3     1  UNL1        0.0000
     16 C         142.5419  140.7315  170.0991 C.3     1  UNL1        0.0000
     17 C         143.9546  142.3038  169.9213 C.3     1  UNL1        0.0000
     18 C         138.0739  138.8869  166.1752 C.3     1  UNL1        0.1974
     19 C         137.6474  137.5840  166.7839 C.3     1  UNL1        0.4157
     20 F         137.2209  136.2811  167.3926 F       1  UNL1       -0.1682
     21 F         136.8520  138.3267  167.8163 F       1  UNL1       -0.1682
     22 F         138.4428  136.8414  165.7515 F       1  UNL1       -0.1682
     23 C         144.0558  140.3976  158.0982 C.ar    1  UNL1        0.1547
     24 C         143.8509  139.8445  159.4774 C.ar    1  UNL1        0.0400
     25 C         143.7038  140.7752  160.6444 C.ar    1  UNL1        0.0241
     26 C         143.7616  142.2591  160.4324 C.ar    1  UNL1        0.0033
     27 C         143.9665  142.8121  159.0532 C.ar    1  UNL1        0.0207
     28 C         144.1136  141.8814  157.8861 C.ar    1  UNL1        0.0994
     29 N         144.3185  142.4345  156.5070 N.ar    1  UNL1       -0.2839
     30 C         143.2779  143.1111  155.6647 C.ar    1  UNL1        0.1826
     31 N         143.9163  143.5029  154.3651 N.ar    1  UNL1       -0.2280
     32 C         145.3514  143.0685  154.4042 C.ar    1  UNL1        0.0786
     33 C         146.3609  143.2606  153.3114 C.3     1  UNL1        0.0538
     34 C         145.6001  142.4082  155.7279 C.ar    1  UNL1        0.0963
     35 C         142.9836  138.9216  156.2483 C.3     1  UNL1        0.2525
     36 O         144.2029  139.4669  156.9311 O.3     1  UNL1       -0.4700
@<TRIPOS>BOND
     1    35    36    1
     2    36    23    1
     3    23    24   ar
     4    24    25   ar
     5    25     1    1
     6     1     2   ar
     7     2     3   ar
     8     6     3    1
     9     6     7    1
    10     7     8    1
    11     8    14    1
    12    14    15    1
    13    14    16    1
    14    14    17    1
    15     8     9    1
    16     9    10    1
    17    10    11    1
    18    11    18    1
    19    18    19    1
    20    19    20    1
    21    19    21    1
    22    19    22    1
    23    11    12   am
    24    12    13    2
    25     3     4   ar
    26     4     5   ar
    27    25    26   ar
    28    26    27   ar
    29    27    28   ar
    30    28    29    1
    31    29    30   ar
    32    30    31   ar
    33    31    32   ar
    34    32    33    1
    35    32    34   ar
    36    28    23   ar
    37    34    29   ar
    38     5     1   ar
    39    12     6    1
@<TRIPOS>MOLECULE
*****
 36 39 0 0 0
SMALL
GASTEIGER

@<TRIPOS>ATOM
      1 C         143.2063  138.5227  159.8295 C.ar    1  UNL1        0.1233
      2 C         142.5485  137.4268  159.0442 C.ar    1  UNL1        0.1180
      3 N         142.8606  137.6448  157.5933 N.ar    1  UNL1       -0.2233
      4 N         143.7112  138.8753  157.4819 N.ar    1  UNL1       -0.0634
      5 N         143.9248  139.4178  158.8640 N.ar    1  UNL1       -0.1287
      6 C         142.4026  136.7835  156.4538 C.3     1  UNL1        0.1827
      7 C         143.0160  135.4164  156.3840 C.3     1  UNL1        0.0339
      8 C         142.7700  134.3313  155.3779 C.3     1  UNL1        0.0041
      9 C         141.8500  134.3454  154.1933 C.3     1  UNL1        0.0216
     10 C         140.9487  135.4479  153.7221 C.3     1  UNL1        0.0937
     11 N         140.7448  136.8088  154.3192 N.am    1  UNL1       -0.2703
     12 C         141.3919  137.4031  155.5350 C.2     1  UNL1        0.2483
     13 O         140.9728  138.8022  155.8770 O.2     1  UNL1       -0.2728
     14 C         143.5468  133.0647  155.5838 C.3     1  UNL1        0.0001
     15 C         144.0675  133.5960  156.8863 C.3     1  UNL1        0.0000
     16 C         143.0261  132.5335  154.2813 C.3     1  UNL1        0.0000
     17 C         144.3236  131.7982  155.7897 C.3     1  UNL1        0.0000
     18 C         139.7643  137.6920  153.6063 C.3     1  UNL1        0.1974
     19 C         138.3313  137.2684  153.4744 C.3     1  UNL1        0.4157
     20 F         136.8985  136.8448  153.3423 F       1  UNL1       -0.1682
     21 F         138.5487  136.9869  152.0171 F       1  UNL1       -0.1682
     22 F         138.1140  137.5500  154.9315 F       1  UNL1       -0.1682
     23 C         144.1666  139.6546  163.5101 C.ar    1  UNL1        0.1547
     24 C         144.2184  139.4840  162.0207 C.ar    1  UNL1        0.0400
     25 C         143.1545  138.6932  161.3189 C.ar    1  UNL1        0.0241
     26 C         142.0386  138.0730  162.1064 C.ar    1  UNL1        0.0033
     27 C         141.9868  138.2435  163.5958 C.ar    1  UNL1        0.0207
     28 C         143.0508  139.0343  164.2976 C.ar    1  UNL1        0.0994
     29 N         142.9989  139.2048  165.7870 N.ar    1  UNL1       -0.2839
     30 C         143.4809  138.2145  166.8052 C.ar    1  UNL1        0.1826
     31 N         143.2357  138.7933  168.1671 N.ar    1  UNL1       -0.2280
     32 C         142.6021  140.1413  167.9906 C.ar    1  UNL1        0.0786
     33 C         142.1877  141.0718  169.0919 C.3     1  UNL1        0.0538
     34 C         142.4557  140.3958  166.5197 C.ar    1  UNL1        0.0963
     35 C         145.8176  141.6601  163.5563 C.3     1  UNL1        0.2525
     36 O         145.2305  140.4454  164.2120 O.3     1  UNL1       -0.4700
@<TRIPOS>BOND
     1    35    36    1
     2    36    23    1
     3    23    24   ar
     4    24    25   ar
     5    25     1    1
     6     1     2   ar
     7     2     3   ar
     8     6     3    1
     9     6     7    1
    10     7     8    1
    11     8    14    1
    12    14    15    1
    13    14    16    1
    14    14    17    1
    15     8     9    1
    16     9    10    1
    17    10    11    1
    18    11    18    1
    19    18    19    1
    20    19    20    1
    21    19    21    1
    22    19    22    1
    23    11    12   am
    24    12    13    2
    25     3     4   ar
    26     4     5   ar
    27    25    26   ar
    28    26    27   ar
    29    27    28   ar
    30    28    29    1
    31    29    30   ar
    32    30    31   ar
    33    31    32   ar
    34    32    33    1
    35    32    34   ar
    36    28    23   ar
    37    34    29   ar
    38     5     1   ar
    39    12     6    1
@<TRIPOS>MOLECULE
*****
 36 39 0 0 0
SMALL
GASTEIGER

@<TRIPOS>ATOM
      1 C         139.8437  138.6913  160.4317 C.ar    1  UNL1        0.1233
      2 C         141.1752  138.3801  159.8151 C.ar    1  UNL1        0.1180
      3 N         141.0016  138.3550  158.3253 N.ar    1  UNL1       -0.2233
      4 N         139.5628  138.6507  158.0213 N.ar    1  UNL1       -0.0634
      5 N         138.8472  138.8586  159.3231 N.ar    1  UNL1       -0.1287
      6 C         142.0778  138.0822  157.3167 C.3     1  UNL1        0.1827
      7 C         142.2903  136.6392  156.9661 C.3     1  UNL1        0.0339
      8 C         143.2767  136.0460  156.0041 C.3     1  UNL1        0.0041
      9 C         144.2940  136.7492  155.1554 C.3     1  UNL1        0.0216
     10 C         144.5764  138.2192  155.0587 C.3     1  UNL1        0.0937
     11 N         143.9110  139.3492  155.7871 N.am    1  UNL1       -0.2703
     12 C         142.7990  139.2881  156.7920 C.2     1  UNL1        0.2483
     13 O         142.3488  140.6076  157.3454 O.2     1  UNL1       -0.2728
     14 C         143.2409  134.5521  155.8739 C.3     1  UNL1        0.0001
     15 C         143.7256  134.4174  157.2870 C.3     1  UNL1        0.0000
     16 C         142.7563  134.6869  154.4608 C.3     1  UNL1        0.0000
     17 C         143.2051  133.0583  155.7437 C.3     1  UNL1        0.0000
     18 C         144.4257  140.7215  155.4685 C.3     1  UNL1        0.1974
     19 C         145.8617  141.0644  155.7341 C.3     1  UNL1        0.4157
     20 F         147.2976  141.4073  155.9996 F       1  UNL1       -0.1682
     21 F         146.0990  141.2119  154.2603 F       1  UNL1       -0.1682
     22 F         145.6243  140.9169  157.2078 F       1  UNL1       -0.1682
     23 C         138.6510  140.1887  163.9081 C.ar    1  UNL1        0.1547
     24 C         138.9358  140.0664  162.4404 C.ar    1  UNL1        0.0400
     25 C         139.5588  138.8138  161.8993 C.ar    1  UNL1        0.0241
     26 C         139.8970  137.6836  162.8258 C.ar    1  UNL1        0.0033
     27 C         139.6122  137.8060  164.2933 C.ar    1  UNL1        0.0207
     28 C         138.9892  139.0586  164.8346 C.ar    1  UNL1        0.0994
     29 N         138.7043  139.1809  166.3021 N.ar    1  UNL1       -0.2839
     30 C         137.5881  138.5063  167.0430 C.ar    1  UNL1        0.1826
     31 N         137.6797  138.9079  168.4853 N.ar    1  UNL1       -0.2280
     32 C         138.8526  139.8306  168.6359 C.ar    1  UNL1        0.0786
     33 C         139.3117  140.4721  169.9118 C.3     1  UNL1        0.0538
     34 C         139.4859  139.9995  167.2867 C.ar    1  UNL1        0.0963
     35 C         138.8694  142.6638  164.6674 C.3     1  UNL1        0.2525
     36 O         138.0279  141.4413  164.4493 O.3     1  UNL1       -0.4700
@<TRIPOS>BOND
     1    35    36    1
     2    36    23    1
     3    23    24   ar
     4    24    25   ar
     5    25     1    1
     6     1     2   ar
     7     2     3   ar
     8     6     3    1
     9     6     7    1
    10     7     8    1
    11     8    14    1
    12    14    15    1
    13    14    16    1
    14    14    17    1
    15     8     9    1
    16     9    10    1
    17    10    11    1
    18    11    18    1
    19    18    19    1
    20    19    20    1
    21    19    21    1
    22    19    22    1
    23    11    12   am
    24    12    13    2
    25     3     4   ar
    26     4     5   ar
    27    25    26   ar
    28    26    27   ar
    29    27    28   ar
    30    28    29    1
    31    29    30   ar
    32    30    31   ar
    33    31    32   ar
    34    32    33    1
    35    32    34   ar
    36    28    23   ar
    37    34    29   ar
    38     5     1   ar
    39    12     6    1
@<TRIPOS>MOLECULE
*****
 36 39 0 0 0
SMALL
GASTEIGER

@<TRIPOS>ATOM
      1 C         143.2191  138.9726  160.2146 C.ar    1  UNL1        0.1233
      2 C         142.4995  137.8747  159.4888 C.ar    1  UNL1        0.1180
      3 N         142.8604  137.9657  158.0357 N.ar    1  UNL1       -0.2233
      4 N         143.8030  139.1197  157.8635 N.ar    1  UNL1       -0.0634
      5 N         144.0247  139.7420  159.2102 N.ar    1  UNL1       -0.1287
      6 C         142.3656  137.0614  156.9460 C.3     1  UNL1        0.1827
      7 C         142.9644  135.6863  156.9194 C.3     1  UNL1        0.0339
      8 C         142.6830  134.5619  155.9672 C.3     1  UNL1        0.0041
      9 C         141.7333  134.5349  154.8066 C.3     1  UNL1        0.0216
     10 C         140.8304  135.6256  154.3113 C.3     1  UNL1        0.0937
     11 N         140.6543  137.0126  154.8544 N.am    1  UNL1       -0.2703
     12 C         141.3376  137.6516  156.0270 C.2     1  UNL1        0.2483
     13 O         140.9401  139.0681  156.3192 O.2     1  UNL1       -0.2728
     14 C         143.4531  133.2973  156.2076 C.3     1  UNL1        0.0001
     15 C         143.1188  132.8304  154.8219 C.3     1  UNL1        0.0000
     16 C         143.7875  133.7643  157.5932 C.3     1  UNL1        0.0000
     17 C         144.2233  132.0328  156.4479 C.3     1  UNL1        0.0000
     18 C         139.6640  137.8747  154.1292 C.3     1  UNL1        0.1974
     19 C         138.1933  137.6312  154.2966 C.3     1  UNL1        0.4157
     20 F         136.7227  137.3876  154.4640 F       1  UNL1       -0.1682
     21 F         138.1998  136.7548  153.0792 F       1  UNL1       -0.1682
     22 F         138.1869  138.5075  155.5139 F       1  UNL1       -0.1682
     23 C         141.7646  139.4058  163.8816 C.ar    1  UNL1        0.1547
     24 C         141.8377  139.1265  162.4096 C.ar    1  UNL1        0.0400
     25 C         143.1459  139.2519  161.6866 C.ar    1  UNL1        0.0241
     26 C         144.3810  139.6565  162.4356 C.ar    1  UNL1        0.0033
     27 C         144.3078  139.9358  163.9074 C.ar    1  UNL1        0.0207
     28 C         142.9996  139.8104  164.6305 C.ar    1  UNL1        0.0994
     29 N         142.9265  140.0897  166.1025 N.ar    1  UNL1       -0.2839
     30 C         142.9358  139.0634  167.1962 C.ar    1  UNL1        0.1826
     31 N         142.8463  139.7838  168.5088 N.ar    1  UNL1       -0.2280
     32 C         142.7817  141.2555  168.2263 C.ar    1  UNL1        0.0786
     33 C         142.6845  142.3466  169.2511 C.3     1  UNL1        0.0538
     34 C         142.8312  141.4447  166.7391 C.ar    1  UNL1        0.0963
     35 C         139.8941  137.9233  164.9082 C.3     1  UNL1        0.2525
     36 O         140.4563  139.2805  164.6047 O.3     1  UNL1       -0.4700
@<TRIPOS>BOND
     1    35    36    1
     2    36    23    1
     3    23    24   ar
     4    24    25   ar
     5    25     1    1
     6     1     2   ar
     7     2     3   ar
     8     6     3    1
     9     6     7    1
    10     7     8    1
    11     8    14    1
    12    14    15    1
    13    14    16    1
    14    14    17    1
    15     8     9    1
    16     9    10    1
    17    10    11    1
    18    11    18    1
    19    18    19    1
    20    19    20    1
    21    19    21    1
    22    19    22    1
    23    11    12   am
    24    12    13    2
    25     3     4   ar
    26     4     5   ar
    27    25    26   ar
    28    26    27   ar
    29    27    28   ar
    30    28    29    1
    31    29    30   ar
    32    30    31   ar
    33    31    32   ar
    34    32    33    1
    35    32    34   ar
    36    28    23   ar
    37    34    29   ar
    38     5     1   ar
    39    12     6    1
@<TRIPOS>MOLECULE
*****
 36 39 0 0 0
SMALL
GASTEIGER

@<TRIPOS>ATOM
      1 C         143.6564  141.4615  159.3012 C.ar    1  UNL1        0.1233
      2 C         143.7278  141.8256  160.7547 C.ar    1  UNL1        0.1180
      3 N         142.4247  141.4445  161.3924 N.ar    1  UNL1       -0.2233
      4 N         141.5480  140.8449  160.3333 N.ar    1  UNL1       -0.0634
      5 N         142.3093  140.8555  159.0408 N.ar    1  UNL1       -0.1287
      6 C         142.0619  141.6303  162.8360 C.3     1  UNL1        0.1827
      7 C         142.5894  140.5895  163.7787 C.3     1  UNL1        0.0339
      8 C         142.4048  140.4936  165.2643 C.3     1  UNL1        0.0041
      9 C         141.6473  141.4148  166.1739 C.3     1  UNL1        0.0216
     10 C         140.8872  142.6594  165.8228 C.3     1  UNL1        0.0937
     11 N         140.6969  143.2901  164.4753 N.am    1  UNL1       -0.2703
     12 C         141.2197  142.8321  163.1460 C.2     1  UNL1        0.2483
     13 O         140.8516  143.6893  161.9715 O.2     1  UNL1       -0.2728
     14 C         143.0652  139.3216  165.9278 C.3     1  UNL1        0.0001
     15 C         143.9426  139.1355  164.7255 C.3     1  UNL1        0.0000
     16 C         142.1878  139.5077  167.1300 C.3     1  UNL1        0.0000
     17 C         143.7256  138.1496  166.5912 C.3     1  UNL1        0.0000
     18 C         139.8751  144.5448  164.4542 C.3     1  UNL1        0.1974
     19 C         138.4251  144.4981  164.8353 C.3     1  UNL1        0.4157
     20 F         136.9751  144.4514  165.2164 F       1  UNL1       -0.1682
     21 F         138.1661  143.5177  163.7299 F       1  UNL1       -0.1682
     22 F         138.6841  145.4785  165.9406 F       1  UNL1       -0.1682
     23 C         145.8483  141.0496  156.0186 C.ar    1  UNL1        0.1547
     24 C         144.7629  140.8435  157.0333 C.ar    1  UNL1        0.0400
     25 C         144.7417  141.6675  158.2865 C.ar    1  UNL1        0.0241
     26 C         145.8059  142.6975  158.5251 C.ar    1  UNL1        0.0033
     27 C         146.8912  142.9034  157.5104 C.ar    1  UNL1        0.0207
     28 C         146.9124  142.0795  156.2571 C.ar    1  UNL1        0.0994
     29 N         147.9978  142.2855  155.2425 N.ar    1  UNL1       -0.2839
     30 C         147.8784  143.0723  153.9710 C.ar    1  UNL1        0.1826
     31 N         149.2000  143.0139  153.2639 N.ar    1  UNL1       -0.2280
     32 C         150.1361  142.1910  154.0984 C.ar    1  UNL1        0.0786
     33 C         151.5646  141.8740  153.7680 C.3     1  UNL1        0.0538
     34 C         149.3932  141.7408  155.3212 C.ar    1  UNL1        0.0963
     35 C         144.8506  139.1438  154.5615 C.3     1  UNL1        0.2525
     36 O         145.8696  140.2256  154.7653 O.3     1  UNL1       -0.4700
@<TRIPOS>BOND
     1    35    36    1
     2    36    23    1
     3    23    24   ar
     4    24    25   ar
     5    25     1    1
     6     1     2   ar
     7     2     3   ar
     8     6     3    1
     9     6     7    1
    10     7     8    1
    11     8    14    1
    12    14    15    1
    13    14    16    1
    14    14    17    1
    15     8     9    1
    16     9    10    1
    17    10    11    1
    18    11    18    1
    19    18    19    1
    20    19    20    1
    21    19    21    1
    22    19    22    1
    23    11    12   am
    24    12    13    2
    25     3     4   ar
    26     4     5   ar
    27    25    26   ar
    28    26    27   ar
    29    27    28   ar
    30    28    29    1
    31    29    30   ar
    32    30    31   ar
    33    31    32   ar
    34    32    33    1
    35    32    34   ar
    36    28    23   ar
    37    34    29   ar
    38     5     1   ar
    39    12     6    1
@<TRIPOS>MOLECULE
*****
 36 39 0 0 0
SMALL
GASTEIGER

@<TRIPOS>ATOM
      1 C         142.6511  138.0880  158.2449 C.ar    1  UNL1        0.1233
      2 C         141.9011  138.3867  159.5092 C.ar    1  UNL1        0.1180
      3 N         142.4978  139.6189  160.1219 N.ar    1  UNL1       -0.2233
      4 N         143.6165  140.0818  159.2365 N.ar    1  UNL1       -0.0634
      5 N         143.7113  139.1356  158.0764 N.ar    1  UNL1       -0.1287
      6 C         142.0537  140.2735  161.3965 C.3     1  UNL1        0.1827
      7 C         142.5622  139.6472  162.6611 C.3     1  UNL1        0.0339
      8 C         142.3024  140.0605  164.0796 C.3     1  UNL1        0.0041
      9 C         141.4702  141.2020  164.5835 C.3     1  UNL1        0.0216
     10 C         140.6920  142.2123  163.7937 C.3     1  UNL1        0.0937
     11 N         140.5540  142.3305  162.3047 N.am    1  UNL1       -0.2703
     12 C         141.1601  141.4676  161.2379 C.2     1  UNL1        0.2483
     13 O         140.8285  141.8494  159.8257 O.2     1  UNL1       -0.2728
     14 C         142.9623  139.2212  165.1332 C.3     1  UNL1        0.0001
     15 C         141.6519  139.0936  165.8520 C.3     1  UNL1        0.0000
     16 C         144.2726  139.3488  164.4144 C.3     1  UNL1        0.0000
     17 C         143.6220  138.3818  166.1868 C.3     1  UNL1        0.0000
     18 C         139.6966  143.4611  161.8183 C.3     1  UNL1        0.1974
     19 C         138.5262  143.9205  162.6364 C.3     1  UNL1        0.4157
     20 F         137.3559  144.3801  163.4544 F       1  UNL1       -0.1682
     21 F         139.3003  145.1324  163.0632 F       1  UNL1       -0.1682
     22 F         137.7522  142.7087  162.2095 F       1  UNL1       -0.1682
     23 C         143.0568  134.6238  156.3515 C.ar    1  UNL1        0.1547
     24 C         143.3208  135.7691  157.2836 C.ar    1  UNL1        0.0400
     25 C         142.3872  136.9427  157.3129 C.ar    1  UNL1        0.0241
     26 C         141.1895  136.9710  156.4102 C.ar    1  UNL1        0.0033
     27 C         140.9255  135.8258  155.4782 C.ar    1  UNL1        0.0207
     28 C         141.8592  134.6521  155.4488 C.ar    1  UNL1        0.0994
     29 N         141.5951  133.5069  154.5168 N.ar    1  UNL1       -0.2839
     30 C         141.7966  133.5152  153.0305 C.ar    1  UNL1        0.1826
     31 N         141.4092  132.1657  152.5026 N.ar    1  UNL1       -0.2280
     32 C         140.9683  131.3233  153.6627 C.ar    1  UNL1        0.0786
     33 C         140.4954  129.9016  153.5906 C.3     1  UNL1        0.0538
     34 C         141.0831  132.1521  154.9076 C.ar    1  UNL1        0.0963
     35 C         144.4815  132.8500  157.6063 C.3     1  UNL1        0.2525
     36 O         143.9904  133.4501  156.3221 O.3     1  UNL1       -0.4700
@<TRIPOS>BOND
     1    35    36    1
     2    36    23    1
     3    23    24   ar
     4    24    25   ar
     5    25     1    1
     6     1     2   ar
     7     2     3   ar
     8     6     3    1
     9     6     7    1
    10     7     8    1
    11     8    14    1
    12    14    15    1
    13    14    16    1
    14    14    17    1
    15     8     9    1
    16     9    10    1
    17    10    11    1
    18    11    18    1
    19    18    19    1
    20    19    20    1
    21    19    21    1
    22    19    22    1
    23    11    12   am
    24    12    13    2
    25     3     4   ar
    26     4     5   ar
    27    25    26   ar
    28    26    27   ar
    29    27    28   ar
    30    28    29    1
    31    29    30   ar
    32    30    31   ar
    33    31    32   ar
    34    32    33    1
    35    32    34   ar
    36    28    23   ar
    37    34    29   ar
    38     5     1   ar
    39    12     6    1
@<TRIPOS>MOLECULE
*****
 36 39 0 0 0
SMALL
GASTEIGER

@<TRIPOS>ATOM
      1 C         142.6134  141.7127  158.2674 C.ar    1  UNL1        0.1233
      2 C         142.5091  141.6513  159.7625 C.ar    1  UNL1        0.1180
      3 N         141.0629  141.4749  160.1194 N.ar    1  UNL1       -0.2233
      4 N         140.2734  141.4273  158.8449 N.ar    1  UNL1       -0.0634
      5 N         141.2317  141.5742  157.7002 N.ar    1  UNL1       -0.1287
      6 C         140.5041  141.3654  161.5071 C.3     1  UNL1        0.1827
      7 C         140.7344  140.0549  162.1998 C.3     1  UNL1        0.0339
      8 C         140.3063  139.6362  163.5751 C.3     1  UNL1        0.0041
      9 C         139.5425  140.4244  164.5974 C.3     1  UNL1        0.0216
     10 C         139.0179  141.8261  164.4969 C.3     1  UNL1        0.0937
     11 N         139.1277  142.7857  163.3493 N.am    1  UNL1       -0.2703
     12 C         139.7892  142.5806  162.0187 C.2     1  UNL1        0.2483
     13 O         139.7274  143.7449  161.0749 O.2     1  UNL1       -0.2728
     14 C         140.6934  138.2452  163.9819 C.3     1  UNL1        0.0001
     15 C         142.0140  138.7573  164.4757 C.3     1  UNL1        0.0000
     16 C         139.3729  137.7332  163.4880 C.3     1  UNL1        0.0000
     17 C         141.0806  136.8543  164.3886 C.3     1  UNL1        0.0000
     18 C         138.4920  144.1278  163.5601 C.3     1  UNL1        0.1974
     19 C         138.5242  144.7684  164.9161 C.3     1  UNL1        0.4157
     20 F         138.5564  145.4088  166.2721 F       1  UNL1       -0.1682
     21 F         137.0762  144.4288  165.1110 F       1  UNL1       -0.1682
     22 F         139.9722  145.1079  164.7213 F       1  UNL1       -0.1682
     23 C         145.1811  141.6598  155.2417 C.ar    1  UNL1        0.1547
     24 C         143.9169  141.4898  156.0310 C.ar    1  UNL1        0.0400
     25 C         143.8776  141.8826  157.4781 C.ar    1  UNL1        0.0241
     26 C         145.1026  142.4455  158.1360 C.ar    1  UNL1        0.0033
     27 C         146.3667  142.6154  157.3467 C.ar    1  UNL1        0.0207
     28 C         146.4060  142.2226  155.8996 C.ar    1  UNL1        0.0994
     29 N         147.6702  142.3926  155.1104 N.ar    1  UNL1       -0.2839
     30 C         147.8546  143.2909  153.9234 C.ar    1  UNL1        0.1826
     31 N         149.2704  143.1476  153.4491 N.ar    1  UNL1       -0.2280
     32 C         149.9610  142.1608  154.3430 C.ar    1  UNL1        0.0786
     33 C         151.3899  141.7182  154.2300 C.3     1  UNL1        0.0538
     34 C         148.9722  141.6941  155.3698 C.ar    1  UNL1        0.0963
     35 C         145.3490  139.8220  153.4129 C.3     1  UNL1        0.2525
     36 O         145.2204  141.2670  153.7946 O.3     1  UNL1       -0.4700
@<TRIPOS>BOND
     1    35    36    1
     2    36    23    1
     3    23    24   ar
     4    24    25   ar
     5    25     1    1
     6     1     2   ar
     7     2     3   ar
     8     6     3    1
     9     6     7    1
    10     7     8    1
    11     8    14    1
    12    14    15    1
    13    14    16    1
    14    14    17    1
    15     8     9    1
    16     9    10    1
    17    10    11    1
    18    11    18    1
    19    18    19    1
    20    19    20    1
    21    19    21    1
    22    19    22    1
    23    11    12   am
    24    12    13    2
    25     3     4   ar
    26     4     5   ar
    27    25    26   ar
    28    26    27   ar
    29    27    28   ar
    30    28    29    1
    31    29    30   ar
    32    30    31   ar
    33    31    32   ar
    34    32    33    1
    35    32    34   ar
    36    28    23   ar
    37    34    29   ar
    38     5     1   ar
    39    12     6    1
@<TRIPOS>MOLECULE
*****
 36 39 0 0 0
SMALL
GASTEIGER

@<TRIPOS>ATOM
      1 C         143.1218  140.6569  158.7240 C.ar    1  UNL1        0.1233
      2 C         143.1692  141.1418  160.1427 C.ar    1  UNL1        0.1180
      3 N         141.9042  140.7089  160.8229 N.ar    1  UNL1       -0.2233
      4 N         141.0752  139.9566  159.8246 N.ar    1  UNL1       -0.0634
      5 N         141.8277  139.9244  158.5274 N.ar    1  UNL1       -0.1287
      6 C         141.5334  140.9807  162.2507 C.3     1  UNL1        0.1827
      7 C         142.2396  140.1449  163.2768 C.3     1  UNL1        0.0339
      8 C         142.0922  140.1743  164.7694 C.3     1  UNL1        0.0041
      9 C         141.2023  141.0466  165.6042 C.3     1  UNL1        0.0216
     10 C         140.2400  142.1050  165.1529 C.3     1  UNL1        0.0937
     11 N         139.9298  142.5525  163.7552 N.am    1  UNL1       -0.2703
     12 C         140.5055  142.0520  162.4636 C.2     1  UNL1        0.2483
     13 O         139.9843  142.7102  161.2205 O.2     1  UNL1       -0.2728
     14 C         142.9480  139.2029  165.5270 C.3     1  UNL1        0.0001
     15 C         141.9683  139.2258  166.6627 C.3     1  UNL1        0.0000
     16 C         143.9275  139.1800  164.3914 C.3     1  UNL1        0.0000
     17 C         143.8036  138.2315  166.2847 C.3     1  UNL1        0.0000
     18 C         138.9091  143.6448  163.6330 C.3     1  UNL1        0.1974
     19 C         138.6698  144.5796  164.7814 C.3     1  UNL1        0.4157
     20 F         138.4304  145.5144  165.9298 F       1  UNL1       -0.1682
     21 F         137.3148  143.9720  164.9936 F       1  UNL1       -0.1682
     22 F         140.0247  145.1871  164.5692 F       1  UNL1       -0.1682
     23 C         146.2558  142.1714  156.8174 C.ar    1  UNL1        0.1547
     24 C         145.1951  141.9607  157.8570 C.ar    1  UNL1        0.0400
     25 C         144.1825  140.8676  157.6845 C.ar    1  UNL1        0.0241
     26 C         144.2306  139.9851  156.4725 C.ar    1  UNL1        0.0033
     27 C         145.2912  140.1958  155.4330 C.ar    1  UNL1        0.0207
     28 C         146.3039  141.2889  155.6054 C.ar    1  UNL1        0.0994
     29 N         147.3645  141.4995  154.5659 N.ar    1  UNL1       -0.2839
     30 C         147.1381  141.6283  153.0887 C.ar    1  UNL1        0.1826
     31 N         148.4715  141.8267  152.4309 N.ar    1  UNL1       -0.2280
     32 C         149.5219  141.8205  153.5016 C.ar    1  UNL1        0.0786
     33 C         150.9976  141.9873  153.2899 C.3     1  UNL1        0.0538
     34 C         148.8379  141.6183  154.8211 C.ar    1  UNL1        0.0963
     35 C         147.9241  143.4761  158.3223 C.3     1  UNL1        0.2525
     36 O         147.2684  143.2645  156.9898 O.3     1  UNL1       -0.4700
@<TRIPOS>BOND
     1    35    36    1
     2    36    23    1
     3    23    24   ar
     4    24    25   ar
     5    25     1    1
     6     1     2   ar
     7     2     3   ar
     8     6     3    1
     9     6     7    1
    10     7     8    1
    11     8    14    1
    12    14    15    1
    13    14    16    1
    14    14    17    1
    15     8     9    1
    16     9    10    1
    17    10    11    1
    18    11    18    1
    19    18    19    1
    20    19    20    1
    21    19    21    1
    22    19    22    1
    23    11    12   am
    24    12    13    2
    25     3     4   ar
    26     4     5   ar
    27    25    26   ar
    28    26    27   ar
    29    27    28   ar
    30    28    29    1
    31    29    30   ar
    32    30    31   ar
    33    31    32   ar
    34    32    33    1
    35    32    34   ar
    36    28    23   ar
    37    34    29   ar
    38     5     1   ar
    39    12     6    1
@<TRIPOS>MOLECULE
*****
 36 39 0 0 0
SMALL
GASTEIGER

@<TRIPOS>ATOM
      1 C         141.2128  139.3436  161.3163 C.ar    1  UNL1        0.1233
      2 C         142.3646  139.1096  160.3842 C.ar    1  UNL1        0.1180
      3 N         141.8179  138.5556  159.1019 N.ar    1  UNL1       -0.2233
      4 N         140.3284  138.4472  159.2415 N.ar    1  UNL1       -0.0634
      5 N         139.9544  138.9342  160.6101 N.ar    1  UNL1       -0.1287
      6 C         142.6199  138.1765  157.8923 C.3     1  UNL1        0.1827
      7 C         142.6676  136.7108  157.5763 C.3     1  UNL1        0.0339
      8 C         143.3754  136.0199  156.4486 C.3     1  UNL1        0.0041
      9 C         144.2101  136.6238  155.3585 C.3     1  UNL1        0.0216
     10 C         144.5434  138.0678  155.1268 C.3     1  UNL1        0.0937
     11 N         144.1242  139.2646  155.9280 N.am    1  UNL1       -0.2703
     12 C         143.2681  139.3129  157.1588 C.2     1  UNL1        0.2483
     13 O         143.0287  140.6783  157.7318 O.2     1  UNL1       -0.2728
     14 C         143.2289  134.5276  156.4054 C.3     1  UNL1        0.0001
     15 C         143.5834  134.4509  157.8609 C.3     1  UNL1        0.0000
     16 C         142.8745  134.6045  154.9499 C.3     1  UNL1        0.0000
     17 C         143.0824  133.0355  156.3623 C.3     1  UNL1        0.0000
     18 C         144.6275  140.5880  155.4329 C.3     1  UNL1        0.1974
     19 C         146.0983  140.8828  155.4439 C.3     1  UNL1        0.4157
     20 F         147.5690  141.1776  155.4548 F       1  UNL1       -0.1682
     21 F         146.1653  140.6029  153.9717 F       1  UNL1       -0.1682
     22 F         146.0312  141.1626  156.9160 F       1  UNL1       -0.1682
     23 C         140.5211  139.8793  165.1873 C.ar    1  UNL1        0.1547
     24 C         140.4302  139.3319  163.7937 C.ar    1  UNL1        0.0400
     25 C         141.3037  139.8909  162.7099 C.ar    1  UNL1        0.0241
     26 C         142.2681  140.9972  163.0198 C.ar    1  UNL1        0.0033
     27 C         142.3590  141.5445  164.4134 C.ar    1  UNL1        0.0207
     28 C         141.4855  140.9855  165.4972 C.ar    1  UNL1        0.0994
     29 N         141.5765  141.5329  166.8908 N.ar    1  UNL1       -0.2839
     30 C         142.6082  141.1670  167.9162 C.ar    1  UNL1        0.1826
     31 N         142.3209  141.9503  169.1628 N.ar    1  UNL1       -0.2280
     32 C         141.1117  142.8003  168.9077 C.ar    1  UNL1        0.0786
     33 C         140.4744  143.7428  169.8853 C.3     1  UNL1        0.0538
     34 C         140.6515  142.5424  167.5036 C.ar    1  UNL1        0.0963
     35 C         138.1735  139.1647  166.0409 C.3     1  UNL1        0.2525
     36 O         139.6476  139.3203  166.2711 O.3     1  UNL1       -0.4700
@<TRIPOS>BOND
     1    35    36    1
     2    36    23    1
     3    23    24   ar
     4    24    25   ar
     5    25     1    1
     6     1     2   ar
     7     2     3   ar
     8     6     3    1
     9     6     7    1
    10     7     8    1
    11     8    14    1
    12    14    15    1
    13    14    16    1
    14    14    17    1
    15     8     9    1
    16     9    10    1
    17    10    11    1
    18    11    18    1
    19    18    19    1
    20    19    20    1
    21    19    21    1
    22    19    22    1
    23    11    12   am
    24    12    13    2
    25     3     4   ar
    26     4     5   ar
    27    25    26   ar
    28    26    27   ar
    29    27    28   ar
    30    28    29    1
    31    29    30   ar
    32    30    31   ar
    33    31    32   ar
    34    32    33    1
    35    32    34   ar
    36    28    23   ar
    37    34    29   ar
    38     5     1   ar
    39    12     6    1
