@<TRIPOS>MOLECULE
*****
 39 44 0 0 0
SMALL
GASTEIGER

@<TRIPOS>ATOM
      1 C         143.4191  140.8321  160.6811 C.ar    1  UNL1        0.1533
      2 C         143.2324  141.0995  162.1453 C.ar    1  UNL1        0.0527
      3 C         143.3508  139.9774  163.1337 C.ar    1  UNL1        0.0511
      4 C         143.6560  138.5880  162.6579 C.ar    1  UNL1        0.0160
      5 C         143.8426  138.3206  161.1938 C.ar    1  UNL1        0.0190
      6 C         143.7242  139.4427  160.2054 C.ar    1  UNL1        0.0850
      7 N         143.1641  140.2448  164.5978 N.pl3   1  UNL1       -0.3028
      8 C         143.2818  141.6440  165.1255 C.3     1  UNL1        0.1219
      9 C         143.0951  141.9115  166.5897 C.3     1  UNL1        0.1508
     10 C         142.9084  142.1790  168.0537 C.3     1  UNL1        0.1039
     11 N         142.6041  141.0473  168.9901 N.3     1  UNL1       -0.2664
     12 C         142.4864  139.6482  168.4623 C.3     1  UNL1        0.1039
     13 C         142.6731  139.3807  166.9982 C.3     1  UNL1        0.1508
     14 C         142.8598  139.1132  165.5341 C.3     1  UNL1        0.1219
     15 O         142.7908  140.7799  167.5259 O.3     1  UNL1       -0.3524
     16 C         142.4174  141.3148  170.4542 C.3     1  UNL1        0.1044
     17 C         141.0399  141.3093  171.0479 C.3     1  UNL1        0.1544
     18 O         140.7327  140.4274  172.2217 O.3     1  UNL1       -0.3805
     19 H         140.7974  139.4975  171.9532 H       1  UNL1        0.2105
     20 C         144.5355  142.6253  159.1684 C.3     1  UNL1        0.2525
     21 O         143.3007  141.9542  159.6927 O.3     1  UNL1       -0.4701
     22 N         143.9109  139.1752  158.7413 N.pl3   1  UNL1       -0.2802
     23 H         144.7449  139.4464  158.2938 H       1  UNL1        0.1552
     24 C         142.8271  138.4947  157.9589 C.ar    1  UNL1        0.2208
     25 N         141.4409  139.0676  157.9429 N.ar    1  UNL1       -0.2111
     26 C         140.3571  138.3870  157.1605 C.ar    1  UNL1        0.1147
     27 C         140.6594  137.1335  156.3943 C.ar    1  UNL1        0.0960
     28 CL        139.5756  136.4529  155.6119 Cl      1  UNL1       -0.0790
     29 C         142.0456  136.5605  156.4103 C.ar    1  UNL1        0.1138
     30 N         143.1294  137.2411  157.1926 N.ar    1  UNL1       -0.2111
     31 C         142.3479  135.3069  155.6440 C.ar    1  UNL1        0.1031
     32 C         141.8967  134.9968  154.2475 C.ar    1  UNL1        0.1196
     33 N         142.4245  133.6416  153.8802 N.ar    1  UNL1       -0.2248
     34 C         143.2018  133.1142  155.0496 C.ar    1  UNL1        0.1479
     35 C         143.9466  131.8297  155.2626 C.ar    1  UNL1        0.0374
     36 C         144.6441  131.5746  156.5658 C.ar    1  UNL1        0.0046
     37 C         144.5968  132.6038  157.6560 C.ar    1  UNL1        0.0191
     38 C         143.8520  133.8882  157.4429 C.ar    1  UNL1        0.0815
     39 N         143.1545  134.1434  156.1397 N.ar    1  UNL1       -0.2874
@<TRIPOS>BOND
     1    20    21    1
     2    21     1    1
     3     1     2   ar
     4     2     3   ar
     5     3     7    1
     6     7     8    1
     7     8     9    1
     8     9    10    1
     9    10    11    1
    10    11    16    1
    11    16    17    1
    12    17    18    1
    13    11    12    1
    14    12    13    1
    15    13    14    1
    16    13    15    1
    17     3     4   ar
    18     4     5   ar
    19     5     6   ar
    20     6    22    1
    21    22    24    1
    22    24    25   ar
    23    25    26   ar
    24    26    27   ar
    25    27    28    1
    26    27    29   ar
    27    29    31    1
    28    31    32   ar
    29    32    33   ar
    30    33    34   ar
    31    34    35   ar
    32    35    36   ar
    33    36    37   ar
    34    37    38   ar
    35    38    39   ar
    36    29    30   ar
    37     6     1   ar
    38    30    24   ar
    39    14     7    1
    40    39    31   ar
    41    15     9    1
    42    39    34   ar
    43    18    19    1
    44    22    23    1
@<TRIPOS>MOLECULE
*****
 39 44 0 0 0
SMALL
GASTEIGER

@<TRIPOS>ATOM
      1 C         138.6942  140.3073  159.7474 C.ar    1  UNL1        0.1533
      2 C         139.2889  139.0902  159.1030 C.ar    1  UNL1        0.0527
      3 C         140.3595  139.2395  158.0631 C.ar    1  UNL1        0.0511
      4 C         140.8356  140.6059  157.6676 C.ar    1  UNL1        0.0160
      5 C         140.2410  141.8229  158.3120 C.ar    1  UNL1        0.0190
      6 C         139.1703  141.6737  159.3519 C.ar    1  UNL1        0.0850
      7 N         140.9541  138.0225  157.4188 N.pl3   1  UNL1       -0.3028
      8 C         140.1870  137.2821  156.3636 C.3     1  UNL1        0.1219
      9 C         140.7815  136.0649  155.7192 C.3     1  UNL1        0.1508
     10 C         141.3760  134.8478  155.0748 C.3     1  UNL1        0.1039
     11 N         142.7377  134.3711  155.4857 N.3     1  UNL1       -0.2664
     12 C         143.5047  135.1116  156.5408 C.3     1  UNL1        0.1039
     13 C         142.9102  136.3287  157.1852 C.3     1  UNL1        0.1508
     14 C         142.3157  137.5457  157.8296 C.3     1  UNL1        0.1219
     15 O         142.1431  135.5883  156.1301 O.3     1  UNL1       -0.3524
     16 C         143.3322  133.1540  154.8413 C.3     1  UNL1        0.1044
     17 C         143.9484  132.0815  155.6898 C.3     1  UNL1        0.1544
     18 O         145.3644  132.2217  156.1645 O.3     1  UNL1       -0.3805
     19 H         145.9650  132.1918  155.4034 H       1  UNL1        0.2105
     20 C         137.8218  139.2165  161.9381 C.3     1  UNL1        0.2525
     21 O         137.6235  140.1580  160.7873 O.3     1  UNL1       -0.4701
     22 N         138.5757  142.8907  159.9963 N.pl3   1  UNL1       -0.2802
     23 H         138.0314  143.5139  159.4628 H       1  UNL1        0.1552
     24 C         138.8105  143.1584  161.4534 C.ar    1  UNL1        0.2208
     25 N         137.8346  143.9923  162.2294 N.ar    1  UNL1       -0.2111
     26 C         138.0694  144.2600  163.6866 C.ar    1  UNL1        0.1147
     27 C         139.2799  143.6937  164.3676 C.ar    1  UNL1        0.0960
     28 CL        139.5147  143.9614  165.8248 Cl      1  UNL1       -0.0790
     29 C         140.2558  142.8598  163.5915 C.ar    1  UNL1        0.1138
     30 N         140.0210  142.5922  162.1345 N.ar    1  UNL1       -0.2111
     31 C         141.4664  142.2935  164.2726 C.ar    1  UNL1        0.1031
     32 C         142.6782  143.0659  164.7027 C.ar    1  UNL1        0.1196
     33 N         143.6384  142.1052  165.3391 N.ar    1  UNL1       -0.2248
     34 C         143.0201  140.7390  165.3022 C.ar    1  UNL1        0.1479
     35 C         143.5060  139.4041  165.7837 C.ar    1  UNL1        0.0374
     36 C         142.6495  138.1856  165.6060 C.ar    1  UNL1        0.0046
     37 C         141.3072  138.3020  164.9469 C.ar    1  UNL1        0.0191
     38 C         140.8213  139.6369  164.4654 C.ar    1  UNL1        0.0815
     39 N         141.6777  140.8554  164.6431 N.ar    1  UNL1       -0.2874
@<TRIPOS>BOND
     1    20    21    1
     2    21     1    1
     3     1     2   ar
     4     2     3   ar
     5     3     7    1
     6     7     8    1
     7     8     9    1
     8     9    10    1
     9    10    11    1
    10    11    16    1
    11    16    17    1
    12    17    18    1
    13    11    12    1
    14    12    13    1
    15    13    14    1
    16    13    15    1
    17     3     4   ar
    18     4     5   ar
    19     5     6   ar
    20     6    22    1
    21    22    24    1
    22    24    25   ar
    23    25    26   ar
    24    26    27   ar
    25    27    28    1
    26    27    29   ar
    27    29    31    1
    28    31    32   ar
    29    32    33   ar
    30    33    34   ar
    31    34    35   ar
    32    35    36   ar
    33    36    37   ar
    34    37    38   ar
    35    38    39   ar
    36    29    30   ar
    37     6     1   ar
    38    30    24   ar
    39    14     7    1
    40    39    31   ar
    41    15     9    1
    42    39    34   ar
    43    18    19    1
    44    22    23    1
@<TRIPOS>MOLECULE
*****
 39 44 0 0 0
SMALL
GASTEIGER

@<TRIPOS>ATOM
      1 C         140.3447  140.7304  160.5015 C.ar    1  UNL1        0.1533
      2 C         140.4280  140.8660  161.9932 C.ar    1  UNL1        0.0527
      3 C         140.1063  139.6937  162.8719 C.ar    1  UNL1        0.0511
      4 C         139.7011  138.3859  162.2592 C.ar    1  UNL1        0.0160
      5 C         139.6178  138.2504  160.7677 C.ar    1  UNL1        0.0190
      6 C         139.9396  139.4226  159.8888 C.ar    1  UNL1        0.0850
      7 N         140.1896  139.8294  164.3634 N.pl3   1  UNL1       -0.3028
      8 C         138.9666  139.6164  165.2053 C.3     1  UNL1        0.1219
      9 C         139.0498  139.7521  166.6970 C.3     1  UNL1        0.1508
     10 C         139.1331  139.8877  168.1885 C.3     1  UNL1        0.1039
     11 N         140.4395  140.2363  168.8381 N.3     1  UNL1       -0.2664
     12 C         141.6624  140.4492  167.9961 C.3     1  UNL1        0.1039
     13 C         141.5792  140.3136  166.5046 C.3     1  UNL1        0.1508
     14 C         141.4959  140.1780  165.0130 C.3     1  UNL1        0.1219
     15 O         140.3561  140.1006  167.3465 O.3     1  UNL1       -0.3524
     16 C         140.5228  140.3719  170.3296 C.3     1  UNL1        0.1044
     17 C         140.9828  141.6622  170.9408 C.3     1  UNL1        0.1544
     18 O         140.4658  142.0816  172.2850 O.3     1  UNL1       -0.3805
     19 H         139.5145  142.2611  172.2239 H       1  UNL1        0.2105
     20 C         139.9721  143.2147  159.8384 C.3     1  UNL1        0.2525
     21 O         140.6665  141.9027  159.6228 O.3     1  UNL1       -0.4701
     22 N         139.8562  139.2870  158.3973 N.pl3   1  UNL1       -0.2802
     23 H         139.0540  139.5979  157.9188 H       1  UNL1        0.1552
     24 C         140.9952  138.6776  157.6347 C.ar    1  UNL1        0.2208
     25 N         142.2000  139.5052  157.2978 N.ar    1  UNL1       -0.2111
     26 C         143.3390  138.8958  156.5353 C.ar    1  UNL1        0.1147
     27 C         143.2731  137.4590  156.1096 C.ar    1  UNL1        0.0960
     28 CL        144.4120  136.8497  155.3471 Cl      1  UNL1       -0.0790
     29 C         142.0681  136.6314  156.4466 C.ar    1  UNL1        0.1138
     30 N         140.9293  137.2408  157.2091 N.ar    1  UNL1       -0.2111
     31 C         142.0022  135.1946  156.0209 C.ar    1  UNL1        0.1031
     32 C         141.0775  134.6227  154.9876 C.ar    1  UNL1        0.1196
     33 N         141.3533  133.1521  154.8820 N.ar    1  UNL1       -0.2248
     34 C         142.4485  132.8151  155.8500 C.ar    1  UNL1        0.1479
     35 C         143.1323  131.5218  156.1814 C.ar    1  UNL1        0.0374
     36 C         144.2172  131.4910  157.2167 C.ar    1  UNL1        0.0046
     37 C         144.6183  132.7534  157.9206 C.ar    1  UNL1        0.0191
     38 C         143.9345  134.0466  157.5892 C.ar    1  UNL1        0.0815
     39 N         142.8496  134.0775  156.5539 N.ar    1  UNL1       -0.2874
@<TRIPOS>BOND
     1    20    21    1
     2    21     1    1
     3     1     2   ar
     4     2     3   ar
     5     3     7    1
     6     7     8    1
     7     8     9    1
     8     9    10    1
     9    10    11    1
    10    11    16    1
    11    16    17    1
    12    17    18    1
    13    11    12    1
    14    12    13    1
    15    13    14    1
    16    13    15    1
    17     3     4   ar
    18     4     5   ar
    19     5     6   ar
    20     6    22    1
    21    22    24    1
    22    24    25   ar
    23    25    26   ar
    24    26    27   ar
    25    27    28    1
    26    27    29   ar
    27    29    31    1
    28    31    32   ar
    29    32    33   ar
    30    33    34   ar
    31    34    35   ar
    32    35    36   ar
    33    36    37   ar
    34    37    38   ar
    35    38    39   ar
    36    29    30   ar
    37     6     1   ar
    38    30    24   ar
    39    14     7    1
    40    39    31   ar
    41    15     9    1
    42    39    34   ar
    43    18    19    1
    44    22    23    1
@<TRIPOS>MOLECULE
*****
 39 44 0 0 0
SMALL
GASTEIGER

@<TRIPOS>ATOM
      1 C         141.3397  142.2764  158.4698 C.ar    1  UNL1        0.1533
      2 C         141.5131  140.9075  157.8812 C.ar    1  UNL1        0.0527
      3 C         142.7665  140.1287  158.1501 C.ar    1  UNL1        0.0511
      4 C         143.8467  140.7187  159.0075 C.ar    1  UNL1        0.0160
      5 C         143.6733  142.0874  159.5961 C.ar    1  UNL1        0.0190
      6 C         142.4199  142.8663  159.3273 C.ar    1  UNL1        0.0850
      7 N         142.9398  138.7600  157.5615 N.pl3   1  UNL1       -0.3028
      8 C         143.3656  138.6071  156.1314 C.3     1  UNL1        0.1219
      9 C         143.5389  137.2383  155.5426 C.3     1  UNL1        0.1508
     10 C         143.7122  135.8695  154.9539 C.3     1  UNL1        0.1039
     11 N         143.4595  134.6537  155.7955 N.3     1  UNL1       -0.2664
     12 C         143.0337  134.8068  157.2255 C.3     1  UNL1        0.1039
     13 C         142.8604  136.1755  157.8142 C.3     1  UNL1        0.1508
     14 C         142.6871  137.5442  158.4029 C.3     1  UNL1        0.1219
     15 O         143.2863  136.0226  156.3841 O.3     1  UNL1       -0.3524
     16 C         143.6328  133.2850  155.2068 C.3     1  UNL1        0.1044
     17 C         144.2559  132.1912  156.0224 C.3     1  UNL1        0.1544
     18 O         145.6800  132.3132  156.4773 O.3     1  UNL1       -0.3805
     19 H         146.2684  132.2960  155.7063 H       1  UNL1        0.2105
     20 C         138.8669  142.8284  159.0446 C.3     1  UNL1        0.2525
     21 O         140.0863  143.0552  158.2010 O.3     1  UNL1       -0.4701
     22 N         142.2467  144.2350  159.9159 N.pl3   1  UNL1       -0.2802
     23 H         142.6643  145.0139  159.4821 H       1  UNL1        0.1552
     24 C         141.4371  144.4172  161.1654 C.ar    1  UNL1        0.2208
     25 N         140.4133  145.5108  161.2430 N.ar    1  UNL1       -0.2111
     26 C         139.6037  145.6929  162.4925 C.ar    1  UNL1        0.1147
     27 C         139.8179  144.7815  163.6645 C.ar    1  UNL1        0.0960
     28 CL        139.0083  144.9637  164.9141 Cl      1  UNL1       -0.0790
     29 C         140.8417  143.6879  163.5869 C.ar    1  UNL1        0.1138
     30 N         141.6512  143.5058  162.3374 N.ar    1  UNL1       -0.2111
     31 C         141.0559  142.7765  164.7589 C.ar    1  UNL1        0.1031
     32 C         142.2239  142.8093  165.6994 C.ar    1  UNL1        0.1196
     33 N         142.0295  141.7254  166.7179 N.ar    1  UNL1       -0.2248
     34 C         140.7413  141.0227  166.4068 C.ar    1  UNL1        0.1479
     35 C         140.0385  139.8752  167.0696 C.ar    1  UNL1        0.0374
     36 C         138.7340  139.3773  166.5216 C.ar    1  UNL1        0.0046
     37 C         138.1323  140.0270  165.3108 C.ar    1  UNL1        0.0191
     38 C         138.8351  141.1745  164.6481 C.ar    1  UNL1        0.0815
     39 N         140.1396  141.6723  165.1961 N.ar    1  UNL1       -0.2874
@<TRIPOS>BOND
     1    20    21    1
     2    21     1    1
     3     1     2   ar
     4     2     3   ar
     5     3     7    1
     6     7     8    1
     7     8     9    1
     8     9    10    1
     9    10    11    1
    10    11    16    1
    11    16    17    1
    12    17    18    1
    13    11    12    1
    14    12    13    1
    15    13    14    1
    16    13    15    1
    17     3     4   ar
    18     4     5   ar
    19     5     6   ar
    20     6    22    1
    21    22    24    1
    22    24    25   ar
    23    25    26   ar
    24    26    27   ar
    25    27    28    1
    26    27    29   ar
    27    29    31    1
    28    31    32   ar
    29    32    33   ar
    30    33    34   ar
    31    34    35   ar
    32    35    36   ar
    33    36    37   ar
    34    37    38   ar
    35    38    39   ar
    36    29    30   ar
    37     6     1   ar
    38    30    24   ar
    39    14     7    1
    40    39    31   ar
    41    15     9    1
    42    39    34   ar
    43    18    19    1
    44    22    23    1
@<TRIPOS>MOLECULE
*****
 39 44 0 0 0
SMALL
GASTEIGER

@<TRIPOS>ATOM
      1 C         140.8991  141.8345  158.8676 C.ar    1  UNL1        0.1533
      2 C         141.4328  140.5809  158.2400 C.ar    1  UNL1        0.0527
      3 C         140.5462  139.3801  158.0919 C.ar    1  UNL1        0.0511
      4 C         139.1259  139.4328  158.5713 C.ar    1  UNL1        0.0160
      5 C         138.5922  140.6864  159.1989 C.ar    1  UNL1        0.0190
      6 C         139.4788  141.8872  159.3470 C.ar    1  UNL1        0.0850
      7 N         141.0800  138.1266  157.4644 N.pl3   1  UNL1       -0.3028
      8 C         140.2711  137.4033  156.4287 C.3     1  UNL1        0.1219
      9 C         140.8049  136.1497  155.8011 C.3     1  UNL1        0.1508
     10 C         141.3385  134.8962  155.1735 C.3     1  UNL1        0.1039
     11 N         142.6811  134.3661  155.5816 N.3     1  UNL1       -0.2664
     12 C         143.4898  135.0894  156.6173 C.3     1  UNL1        0.1039
     13 C         142.9561  136.3429  157.2449 C.3     1  UNL1        0.1508
     14 C         142.4225  137.5964  157.8725 C.3     1  UNL1        0.1219
     15 O         142.1473  135.6196  156.2092 O.3     1  UNL1       -0.3524
     16 C         143.2148  133.1126  154.9540 C.3     1  UNL1        0.1044
     17 C         143.8905  132.0774  155.8037 C.3     1  UNL1        0.1544
     18 O         145.3503  132.2061  156.1237 O.3     1  UNL1       -0.3805
     19 H         145.8693  132.1119  155.3096 H       1  UNL1        0.2105
     20 C         142.6097  143.2108  160.2568 C.3     1  UNL1        0.2525
     21 O         141.7858  143.0353  159.0157 O.3     1  UNL1       -0.4701
     22 N         138.9450  143.1407  159.9745 N.pl3   1  UNL1       -0.2802
     23 H         138.5117  143.8253  159.4152 H       1  UNL1        0.1552
     24 C         139.0715  143.3513  161.4543 C.ar    1  UNL1        0.2208
     25 N         138.8023  144.7035  162.0451 N.ar    1  UNL1       -0.2111
     26 C         138.9287  144.9141  163.5248 C.ar    1  UNL1        0.1147
     27 C         139.3243  143.7725  164.4138 C.ar    1  UNL1        0.0960
     28 CL        139.4508  143.9831  165.8935 Cl      1  UNL1       -0.0790
     29 C         139.5936  142.4202  163.8229 C.ar    1  UNL1        0.1138
     30 N         139.4671  142.2097  162.3432 N.ar    1  UNL1       -0.2111
     31 C         139.9892  141.2786  164.7118 C.ar    1  UNL1        0.1031
     32 C         139.0932  140.5621  165.6781 C.ar    1  UNL1        0.1196
     33 N         139.9006  139.4938  166.3540 N.ar    1  UNL1       -0.2248
     34 C         141.2956  139.5500  165.8054 C.ar    1  UNL1        0.1479
     35 C         142.5230  138.7393  166.0990 C.ar    1  UNL1        0.0374
     36 C         143.8051  139.0318  165.3776 C.ar    1  UNL1        0.0046
     37 C         143.8599  140.1349  164.3626 C.ar    1  UNL1        0.0191
     38 C         142.6325  140.9456  164.0691 C.ar    1  UNL1        0.0815
     39 N         141.3503  140.6532  164.7905 N.ar    1  UNL1       -0.2874
@<TRIPOS>BOND
     1    20    21    1
     2    21     1    1
     3     1     2   ar
     4     2     3   ar
     5     3     7    1
     6     7     8    1
     7     8     9    1
     8     9    10    1
     9    10    11    1
    10    11    16    1
    11    16    17    1
    12    17    18    1
    13    11    12    1
    14    12    13    1
    15    13    14    1
    16    13    15    1
    17     3     4   ar
    18     4     5   ar
    19     5     6   ar
    20     6    22    1
    21    22    24    1
    22    24    25   ar
    23    25    26   ar
    24    26    27   ar
    25    27    28    1
    26    27    29   ar
    27    29    31    1
    28    31    32   ar
    29    32    33   ar
    30    33    34   ar
    31    34    35   ar
    32    35    36   ar
    33    36    37   ar
    34    37    38   ar
    35    38    39   ar
    36    29    30   ar
    37     6     1   ar
    38    30    24   ar
    39    14     7    1
    40    39    31   ar
    41    15     9    1
    42    39    34   ar
    43    18    19    1
    44    22    23    1
@<TRIPOS>MOLECULE
*****
 39 44 0 0 0
SMALL
GASTEIGER

@<TRIPOS>ATOM
      1 C         139.5650  137.8222  155.7859 C.ar    1  UNL1        0.1533
      2 C         140.2152  136.4906  155.5532 C.ar    1  UNL1        0.0527
      3 C         141.6526  136.2821  155.9282 C.ar    1  UNL1        0.0511
      4 C         142.4396  137.4051  156.5360 C.ar    1  UNL1        0.0160
      5 C         141.7894  138.7366  156.7687 C.ar    1  UNL1        0.0190
      6 C         140.3520  138.9452  156.3936 C.ar    1  UNL1        0.0850
      7 N         142.3027  134.9505  155.6955 N.pl3   1  UNL1       -0.3028
      8 C         143.3930  134.4781  156.6110 C.3     1  UNL1        0.1219
      9 C         144.0433  133.1465  156.3783 C.3     1  UNL1        0.1508
     10 C         144.6935  131.8149  156.1457 C.3     1  UNL1        0.1039
     11 N         144.2534  130.9558  154.9974 N.3     1  UNL1       -0.2664
     12 C         143.1631  131.4283  154.0820 C.3     1  UNL1        0.1039
     13 C         142.5129  132.7599  154.3147 C.3     1  UNL1        0.1508
     14 C         141.8627  134.0914  154.5473 C.3     1  UNL1        0.1219
     15 O         143.6032  132.2874  155.2302 O.3     1  UNL1       -0.3524
     16 C         144.9036  129.6242  154.7648 C.3     1  UNL1        0.1044
     17 C         144.8685  129.0005  153.4011 C.3     1  UNL1        0.1544
     18 O         146.1085  128.9714  152.5575 O.3     1  UNL1       -0.3805
     19 H         146.3561  129.8774  152.3153 H       1  UNL1        0.2105
     20 C         137.6275  137.5724  154.0730 C.3     1  UNL1        0.2525
     21 O         138.1277  138.0308  155.4109 O.3     1  UNL1       -0.4701
     22 N         139.7019  140.2768  156.6264 N.pl3   1  UNL1       -0.2802
     23 H         139.5054  140.8685  155.8644 H       1  UNL1        0.1552
     24 C         139.3511  140.7069  158.0199 C.ar    1  UNL1        0.2208
     25 N         138.9195  142.1192  158.2826 N.ar    1  UNL1       -0.2111
     26 C         138.5687  142.5493  159.6762 C.ar    1  UNL1        0.1147
     27 C         138.6495  141.5671  160.8070 C.ar    1  UNL1        0.0960
     28 CL        138.2987  141.9972  162.2005 Cl      1  UNL1       -0.0790
     29 C         139.0811  140.1546  160.5442 C.ar    1  UNL1        0.1138
     30 N         139.4319  139.7246  159.1507 N.ar    1  UNL1       -0.2111
     31 C         139.1619  139.1724  161.6750 C.ar    1  UNL1        0.1031
     32 C         138.0960  138.1940  162.0708 C.ar    1  UNL1        0.1196
     33 N         138.5981  137.4131  163.2489 N.ar    1  UNL1       -0.2248
     34 C         139.9743  137.9088  163.5812 C.ar    1  UNL1        0.1479
     35 C         140.9551  137.5106  164.6439 C.ar    1  UNL1        0.0374
     36 C         142.2844  138.1997  164.7338 C.ar    1  UNL1        0.0046
     37 C         142.6328  139.2871  163.7611 C.ar    1  UNL1        0.0191
     38 C         141.6520  139.6853  162.6984 C.ar    1  UNL1        0.0815
     39 N         140.3227  138.9962  162.6085 N.ar    1  UNL1       -0.2874
@<TRIPOS>BOND
     1    20    21    1
     2    21     1    1
     3     1     2   ar
     4     2     3   ar
     5     3     7    1
     6     7     8    1
     7     8     9    1
     8     9    10    1
     9    10    11    1
    10    11    16    1
    11    16    17    1
    12    17    18    1
    13    11    12    1
    14    12    13    1
    15    13    14    1
    16    13    15    1
    17     3     4   ar
    18     4     5   ar
    19     5     6   ar
    20     6    22    1
    21    22    24    1
    22    24    25   ar
    23    25    26   ar
    24    26    27   ar
    25    27    28    1
    26    27    29   ar
    27    29    31    1
    28    31    32   ar
    29    32    33   ar
    30    33    34   ar
    31    34    35   ar
    32    35    36   ar
    33    36    37   ar
    34    37    38   ar
    35    38    39   ar
    36    29    30   ar
    37     6     1   ar
    38    30    24   ar
    39    14     7    1
    40    39    31   ar
    41    15     9    1
    42    39    34   ar
    43    18    19    1
    44    22    23    1
@<TRIPOS>MOLECULE
*****
 39 44 0 0 0
SMALL
GASTEIGER

@<TRIPOS>ATOM
      1 C         142.2693  138.8301  157.7967 C.ar    1  UNL1        0.1533
      2 C         142.7845  137.4855  157.3762 C.ar    1  UNL1        0.0527
      3 C         141.8729  136.5159  156.6840 C.ar    1  UNL1        0.0511
      4 C         140.4462  136.8910  156.4123 C.ar    1  UNL1        0.0160
      5 C         139.9311  138.2355  156.8328 C.ar    1  UNL1        0.0190
      6 C         140.8426  139.2051  157.5250 C.ar    1  UNL1        0.0850
      7 N         142.3882  135.1715  156.2635 N.pl3   1  UNL1       -0.3028
      8 C         143.6384  134.6203  156.8826 C.3     1  UNL1        0.1219
      9 C         144.1537  133.2757  156.4621 C.3     1  UNL1        0.1508
     10 C         144.6690  131.9312  156.0417 C.3     1  UNL1        0.1039
     11 N         143.9340  131.1379  155.0022 N.3     1  UNL1       -0.2664
     12 C         142.6839  131.6891  154.3833 C.3     1  UNL1        0.1039
     13 C         142.1686  133.0336  154.8037 C.3     1  UNL1        0.1508
     14 C         141.6533  134.3781  155.2241 C.3     1  UNL1        0.1219
     15 O         143.4188  132.4825  155.4227 O.3     1  UNL1       -0.3524
     16 C         144.4494  129.7934  154.5818 C.3     1  UNL1        0.1044
     17 C         144.6654  129.4940  153.1280 C.3     1  UNL1        0.1544
     18 O         146.0182  129.0635  152.6438 O.3     1  UNL1       -0.3805
     19 H         146.6484  129.7924  152.7548 H       1  UNL1        0.2105
     20 C         143.7186  139.4809  159.8524 C.3     1  UNL1        0.2525
     21 O         143.1809  139.7996  158.4889 O.3     1  UNL1       -0.4701
     22 N         140.3274  140.5496  157.9455 N.pl3   1  UNL1       -0.2802
     23 H         140.3611  141.3078  157.3184 H       1  UNL1        0.1552
     24 C         139.7607  140.7390  159.3213 C.ar    1  UNL1        0.2208
     25 N         138.7272  141.7978  159.5676 N.ar    1  UNL1       -0.2111
     26 C         138.1605  141.9872  160.9434 C.ar    1  UNL1        0.1147
     27 C         138.6274  141.1177  162.0731 C.ar    1  UNL1        0.0960
     28 CL        138.0607  141.3071  163.4489 Cl      1  UNL1       -0.0790
     29 C         139.6610  140.0588  161.8268 C.ar    1  UNL1        0.1138
     30 N         140.2276  139.8695  160.4510 N.ar    1  UNL1       -0.2111
     31 C         140.1279  139.1894  162.9564 C.ar    1  UNL1        0.1031
     32 C         139.3475  138.0788  163.5950 C.ar    1  UNL1        0.1196
     33 N         140.1945  137.4810  164.6790 N.ar    1  UNL1       -0.2248
     34 C         141.4983  138.2220  164.7105 C.ar    1  UNL1        0.1479
     35 C         142.7177  138.0717  165.5710 C.ar    1  UNL1        0.0374
     36 C         143.8959  138.9773  165.3669 C.ar    1  UNL1        0.0046
     37 C         143.8547  140.0332  164.3022 C.ar    1  UNL1        0.0191
     38 C         142.6354  140.1834  163.4417 C.ar    1  UNL1        0.0815
     39 N         141.4572  139.2779  163.6458 N.ar    1  UNL1       -0.2874
@<TRIPOS>BOND
     1    20    21    1
     2    21     1    1
     3     1     2   ar
     4     2     3   ar
     5     3     7    1
     6     7     8    1
     7     8     9    1
     8     9    10    1
     9    10    11    1
    10    11    16    1
    11    16    17    1
    12    17    18    1
    13    11    12    1
    14    12    13    1
    15    13    14    1
    16    13    15    1
    17     3     4   ar
    18     4     5   ar
    19     5     6   ar
    20     6    22    1
    21    22    24    1
    22    24    25   ar
    23    25    26   ar
    24    26    27   ar
    25    27    28    1
    26    27    29   ar
    27    29    31    1
    28    31    32   ar
    29    32    33   ar
    30    33    34   ar
    31    34    35   ar
    32    35    36   ar
    33    36    37   ar
    34    37    38   ar
    35    38    39   ar
    36    29    30   ar
    37     6     1   ar
    38    30    24   ar
    39    14     7    1
    40    39    31   ar
    41    15     9    1
    42    39    34   ar
    43    18    19    1
    44    22    23    1
@<TRIPOS>MOLECULE
*****
 39 44 0 0 0
SMALL
GASTEIGER

@<TRIPOS>ATOM
      1 C         143.6532  139.8242  156.0543 C.ar    1  UNL1        0.1533
      2 C         143.4421  138.3613  155.7977 C.ar    1  UNL1        0.0527
      3 C         142.9038  137.4793  156.8850 C.ar    1  UNL1        0.0511
      4 C         142.5765  138.0599  158.2288 C.ar    1  UNL1        0.0160
      5 C         142.7876  139.5227  158.4853 C.ar    1  UNL1        0.0190
      6 C         143.3259  140.4048  157.3980 C.ar    1  UNL1        0.0850
      7 N         142.6927  136.0166  156.6284 N.pl3   1  UNL1       -0.3028
      8 C         141.6882  135.5716  155.6072 C.3     1  UNL1        0.1219
      9 C         141.4770  134.1088  155.3505 C.3     1  UNL1        0.1508
     10 C         141.2659  132.6461  155.0938 C.3     1  UNL1        0.1039
     11 N         142.0594  131.6283  155.8585 N.3     1  UNL1       -0.2664
     12 C         143.0639  132.0734  156.8797 C.3     1  UNL1        0.1039
     13 C         143.2750  133.5361  157.1363 C.3     1  UNL1        0.1508
     14 C         143.4861  134.9988  157.3930 C.3     1  UNL1        0.1219
     15 O         142.2705  133.0911  156.1151 O.3     1  UNL1       -0.3524
     16 C         141.8483  130.1656  155.6018 C.3     1  UNL1        0.1044
     17 C         142.8651  129.1675  156.0707 C.3     1  UNL1        0.1544
     18 O         142.6738  128.4605  157.3798 O.3     1  UNL1       -0.3805
     19 H         142.7299  129.1023  158.1050 H       1  UNL1        0.2105
     20 C         145.5900  140.5065  154.4627 C.3     1  UNL1        0.2525
     21 O         144.1915  140.7062  154.9670 O.3     1  UNL1       -0.4701
     22 N         143.5370  141.8675  157.6546 N.pl3   1  UNL1       -0.2802
     23 H         143.7133  142.4787  156.9032 H       1  UNL1        0.1552
     24 C         143.4794  142.3992  159.0561 C.ar    1  UNL1        0.2208
     25 N         144.6884  142.3160  159.9400 N.ar    1  UNL1       -0.2111
     26 C         144.6308  142.8476  161.3415 C.ar    1  UNL1        0.1147
     27 C         143.3642  143.4624  161.8589 C.ar    1  UNL1        0.0960
     28 CL        143.3066  143.9941  163.2604 Cl      1  UNL1       -0.0790
     29 C         142.1552  143.5456  160.9749 C.ar    1  UNL1        0.1138
     30 N         142.2128  143.0140  159.5736 N.ar    1  UNL1       -0.2111
     31 C         140.8886  144.1605  161.4924 C.ar    1  UNL1        0.1031
     32 C         140.3488  145.5104  161.1231 C.ar    1  UNL1        0.1196
     33 N         139.0661  145.7175  161.8725 N.ar    1  UNL1       -0.2248
     34 C         138.8130  144.4956  162.7050 C.ar    1  UNL1        0.1479
     35 C         137.7025  144.1349  163.6465 C.ar    1  UNL1        0.0374
     36 C         137.7184  142.8119  164.3532 C.ar    1  UNL1        0.0046
     37 C         138.8448  141.8496  164.1182 C.ar    1  UNL1        0.0191
     38 C         139.9553  142.2103  163.1767 C.ar    1  UNL1        0.0815
     39 N         139.9394  143.5333  162.4700 N.ar    1  UNL1       -0.2874
@<TRIPOS>BOND
     1    20    21    1
     2    21     1    1
     3     1     2   ar
     4     2     3   ar
     5     3     7    1
     6     7     8    1
     7     8     9    1
     8     9    10    1
     9    10    11    1
    10    11    16    1
    11    16    17    1
    12    17    18    1
    13    11    12    1
    14    12    13    1
    15    13    14    1
    16    13    15    1
    17     3     4   ar
    18     4     5   ar
    19     5     6   ar
    20     6    22    1
    21    22    24    1
    22    24    25   ar
    23    25    26   ar
    24    26    27   ar
    25    27    28    1
    26    27    29   ar
    27    29    31    1
    28    31    32   ar
    29    32    33   ar
    30    33    34   ar
    31    34    35   ar
    32    35    36   ar
    33    36    37   ar
    34    37    38   ar
    35    38    39   ar
    36    29    30   ar
    37     6     1   ar
    38    30    24   ar
    39    14     7    1
    40    39    31   ar
    41    15     9    1
    42    39    34   ar
    43    18    19    1
    44    22    23    1
@<TRIPOS>MOLECULE
*****
 39 44 0 0 0
SMALL
GASTEIGER

@<TRIPOS>ATOM
      1 C         139.0987  142.9295  156.1477 C.ar    1  UNL1        0.1533
      2 C         138.8345  144.3698  155.8222 C.ar    1  UNL1        0.0527
      3 C         139.8830  145.4060  156.0996 C.ar    1  UNL1        0.0511
      4 C         141.1957  145.0020  156.7026 C.ar    1  UNL1        0.0160
      5 C         141.4599  143.5617  157.0282 C.ar    1  UNL1        0.0190
      6 C         140.4114  142.5255  156.7508 C.ar    1  UNL1        0.0850
      7 N         139.6188  146.8461  155.7740 N.pl3   1  UNL1       -0.3028
      8 C         138.9048  147.7197  156.7626 C.3     1  UNL1        0.1219
      9 C         138.6405  149.1600  156.4371 C.3     1  UNL1        0.1508
     10 C         138.3762  150.6002  156.1116 C.3     1  UNL1        0.1039
     11 N         138.8259  151.1668  154.7974 N.3     1  UNL1       -0.2664
     12 C         139.5398  150.2932  153.8090 C.3     1  UNL1        0.1039
     13 C         139.8041  148.8530  154.1345 C.3     1  UNL1        0.1508
     14 C         140.0684  147.4128  154.4600 C.3     1  UNL1        0.1219
     15 O         139.0902  149.7265  155.1230 O.3     1  UNL1       -0.3524
     16 C         138.5616  152.6070  154.4719 C.3     1  UNL1        0.1044
     17 C         138.2945  153.0187  153.0545 C.3     1  UNL1        0.1544
     18 O         136.9688  153.6144  152.6836 O.3     1  UNL1       -0.3805
     19 H         136.2728  152.9476  152.7928 H       1  UNL1        0.2105
     20 C         137.0357  141.5527  156.9213 C.3     1  UNL1        0.2525
     21 O         138.0502  141.8933  155.8703 O.3     1  UNL1       -0.4701
     22 N         140.6756  141.0853  157.0763 N.pl3   1  UNL1       -0.2802
     23 H         141.0946  140.4981  156.4064 H       1  UNL1        0.1552
     24 C         140.3016  140.5398  158.4226 C.ar    1  UNL1        0.2208
     25 N         139.6001  139.2182  158.5278 N.ar    1  UNL1       -0.2111
     26 C         139.2260  138.6727  159.8741 C.ar    1  UNL1        0.1147
     27 C         139.5535  139.4489  161.1152 C.ar    1  UNL1        0.0960
     28 CL        139.1794  138.9034  162.4615 Cl      1  UNL1       -0.0790
     29 C         140.2551  140.7706  161.0100 C.ar    1  UNL1        0.1138
     30 N         140.6291  141.3160  159.6637 N.ar    1  UNL1       -0.2111
     31 C         140.5825  141.5468  162.2511 C.ar    1  UNL1        0.1031
     32 C         141.8692  141.4797  163.0191 C.ar    1  UNL1        0.1196
     33 N         141.7627  142.4178  164.1847 N.ar    1  UNL1       -0.2248
     34 C         140.4101  143.0646  164.1371 C.ar    1  UNL1        0.1479
     35 C         139.7484  144.0741  165.0276 C.ar    1  UNL1        0.0374
     36 C         138.3574  144.5454  164.7229 C.ar    1  UNL1        0.0046
     37 C         137.6280  144.0070  163.5278 C.ar    1  UNL1        0.0191
     38 C         138.2897  142.9975  162.6374 C.ar    1  UNL1        0.0815
     39 N         139.6807  142.5262  162.9421 N.ar    1  UNL1       -0.2874
@<TRIPOS>BOND
     1    20    21    1
     2    21     1    1
     3     1     2   ar
     4     2     3   ar
     5     3     7    1
     6     7     8    1
     7     8     9    1
     8     9    10    1
     9    10    11    1
    10    11    16    1
    11    16    17    1
    12    17    18    1
    13    11    12    1
    14    12    13    1
    15    13    14    1
    16    13    15    1
    17     3     4   ar
    18     4     5   ar
    19     5     6   ar
    20     6    22    1
    21    22    24    1
    22    24    25   ar
    23    25    26   ar
    24    26    27   ar
    25    27    28    1
    26    27    29   ar
    27    29    31    1
    28    31    32   ar
    29    32    33   ar
    30    33    34   ar
    31    34    35   ar
    32    35    36   ar
    33    36    37   ar
    34    37    38   ar
    35    38    39   ar
    36    29    30   ar
    37     6     1   ar
    38    30    24   ar
    39    14     7    1
    40    39    31   ar
    41    15     9    1
    42    39    34   ar
    43    18    19    1
    44    22    23    1
