@<TRIPOS>MOLECULE
*****
 31 33 0 0 0
SMALL
GASTEIGER

@<TRIPOS>ATOM
      1 C         140.9765  143.4573  163.2068 C.ar    1  UNL1        0.1255
      2 C         140.8094  141.9770  163.0319 C.ar    1  UNL1        0.0233
      3 C         140.2745  141.1442  164.1590 C.ar    1  UNL1        0.0383
      4 C         139.9066  141.7918  165.4610 C.ar    1  UNL1        0.1386
      5 C         140.0737  143.2721  165.6360 C.ar    1  UNL1        0.0383
      6 C         140.6086  144.1049  164.5089 C.ar    1  UNL1        0.0233
      7 S         141.5114  144.2901  162.0798 S.O2    1  UNL1        0.0768
      8 O         140.6462  145.4354  162.5154 O.2     1  UNL1       -0.1498
      9 O         142.3766  143.1448  161.6442 O.2     1  UNL1       -0.1498
     10 O         140.1737  144.2182  159.3955 O.2     1  UNL1       -0.2512
     11 C         141.3775  145.0869  159.6105 C.2     1  UNL1        0.3194
     12 N         141.9124  145.9197  158.4835 N.am    1  UNL1       -0.2894
     13 N         142.0463  145.1229  160.9527 N.am    1  UNL1       -0.1693
     14 H         142.7024  146.4899  158.6246 H       1  UNL1        0.1509
     15 H         142.8364  145.6931  161.0939 H       1  UNL1        0.1781
     16 C         141.2435  145.8838  157.1413 C.3     1  UNL1        0.0731
     17 C         141.8899  145.1554  156.0004 C.3     1  UNL1        0.0196
     18 C         141.2211  145.1195  154.6583 C.3     1  UNL1        0.0017
     19 C         139.9058  145.8120  154.4571 C.3     1  UNL1        0.0001
     20 C         139.2594  146.5404  155.5979 C.3     1  UNL1        0.0017
     21 C         139.9282  146.5763  156.9400 C.3     1  UNL1        0.0196
     22 O         139.3717  140.9590  166.5881 O.3     1  UNL1       -0.4755
     23 C         140.0295  141.0088  167.9352 C.3     1  UNL1        0.2054
     24 C         141.0630  139.9858  168.3035 C.3     1  UNL1        0.0488
     25 C         142.4891  140.1736  167.8779 C.3     1  UNL1        0.0212
     26 C         142.8644  140.0370  166.4321 C.3     1  UNL1        0.0722
     27 N         143.5204  141.1803  165.7162 N.3     1  UNL1       -0.2727
     28 C         143.5853  142.6001  166.1958 C.3     1  UNL1        0.0721
     29 C         144.3316  143.4019  165.1710 C.3     1  UNL1        0.0188
     30 C         144.7280  142.4776  164.0581 C.3     1  UNL1        0.0188
     31 C         144.2266  141.1047  164.3950 C.3     1  UNL1        0.0721
@<TRIPOS>BOND
     1    10    11    2
     2    11    12   am
     3    12    16    1
     4    16    17    1
     5    17    18    1
     6    18    19    1
     7    19    20    1
     8    20    21    1
     9    11    13   am
    10    13     7    1
    11     7     8    2
    12     7     9    2
    13     7     1    1
    14     1     2   ar
    15     2     3   ar
    16     3     4   ar
    17     4    22    1
    18    22    23    1
    19    23    24    1
    20    24    25    1
    21    25    26    1
    22    26    27    1
    23    27    28    1
    24    28    29    1
    25    29    30    1
    26    30    31    1
    27     4     5   ar
    28     5     6   ar
    29    21    16    1
    30     6     1   ar
    31    31    27    1
    32    12    14    1
    33    13    15    1
@<TRIPOS>MOLECULE
*****
 31 33 0 0 0
SMALL
GASTEIGER

@<TRIPOS>ATOM
      1 C         141.2042  144.0069  163.4929 C.ar    1  UNL1        0.1255
      2 C         142.2168  143.1529  164.1967 C.ar    1  UNL1        0.0233
      3 C         141.8988  142.5653  165.5398 C.ar    1  UNL1        0.0383
      4 C         140.5682  142.8317  166.1789 C.ar    1  UNL1        0.1386
      5 C         139.5556  143.6857  165.4750 C.ar    1  UNL1        0.0383
      6 C         139.8736  144.2733  164.1321 C.ar    1  UNL1        0.0233
      7 S         141.5222  144.5944  162.1499 S.O2    1  UNL1        0.0768
      8 O         142.2731  143.3489  161.7828 O.2     1  UNL1       -0.1498
      9 O         140.7714  145.8400  162.5171 O.2     1  UNL1       -0.1498
     10 O         139.5241  144.4081  159.9199 O.2     1  UNL1       -0.2512
     11 C         140.8411  145.0889  159.6919 C.2     1  UNL1        0.3194
     12 N         141.1591  145.6764  158.3490 N.am    1  UNL1       -0.2894
     13 N         141.8402  145.1820  160.8070 N.am    1  UNL1       -0.1693
     14 H         142.0236  146.1232  158.1993 H       1  UNL1        0.1509
     15 H         142.7046  145.6288  160.6573 H       1  UNL1        0.1781
     16 C         140.1600  145.5833  157.2339 C.3     1  UNL1        0.0731
     17 C         139.7094  144.2402  156.7409 C.3     1  UNL1        0.0196
     18 C         138.7104  144.1472  155.6260 C.3     1  UNL1        0.0017
     19 C         138.1620  145.3971  155.0039 C.3     1  UNL1        0.0001
     20 C         138.6127  146.7402  155.4969 C.3     1  UNL1        0.0017
     21 C         139.6117  146.8333  156.6119 C.3     1  UNL1        0.0196
     22 O         140.2502  142.2441  167.5218 O.3     1  UNL1       -0.4755
     23 C         140.1309  140.7574  167.6808 C.3     1  UNL1        0.2054
     24 C         139.2428  139.9735  166.7604 C.3     1  UNL1        0.0488
     25 C         139.8454  139.1052  165.6961 C.3     1  UNL1        0.0212
     26 C         138.9585  138.3899  164.7206 C.3     1  UNL1        0.0722
     27 N         138.4454  139.1077  163.5076 N.3     1  UNL1       -0.2727
     28 C         138.1456  138.4857  162.1759 C.3     1  UNL1        0.0721
     29 C         137.6568  139.5672  161.2586 C.3     1  UNL1        0.0188
     30 C         137.6545  140.8576  162.0232 C.3     1  UNL1        0.0188
     31 C         138.1419  140.5737  163.4132 C.3     1  UNL1        0.0721
@<TRIPOS>BOND
     1    10    11    2
     2    11    12   am
     3    12    16    1
     4    16    17    1
     5    17    18    1
     6    18    19    1
     7    19    20    1
     8    20    21    1
     9    11    13   am
    10    13     7    1
    11     7     8    2
    12     7     9    2
    13     7     1    1
    14     1     2   ar
    15     2     3   ar
    16     3     4   ar
    17     4    22    1
    18    22    23    1
    19    23    24    1
    20    24    25    1
    21    25    26    1
    22    26    27    1
    23    27    28    1
    24    28    29    1
    25    29    30    1
    26    30    31    1
    27     4     5   ar
    28     5     6   ar
    29    21    16    1
    30     6     1   ar
    31    31    27    1
    32    12    14    1
    33    13    15    1
@<TRIPOS>MOLECULE
*****
 31 33 0 0 0
SMALL
GASTEIGER

@<TRIPOS>ATOM
      1 C         141.0604  143.0987  163.1001 C.ar    1  UNL1        0.1255
      2 C         141.6907  143.0948  164.4613 C.ar    1  UNL1        0.0233
      3 C         141.1705  142.1751  165.5260 C.ar    1  UNL1        0.0383
      4 C         140.0201  141.2593  165.2296 C.ar    1  UNL1        0.1386
      5 C         139.3898  141.2632  163.8684 C.ar    1  UNL1        0.0383
      6 C         139.9099  142.1829  162.8037 C.ar    1  UNL1        0.0233
      7 S         141.5805  144.0184  162.0354 S.O2    1  UNL1        0.0768
      8 O         142.5257  142.9492  161.5737 O.2     1  UNL1       -0.1498
      9 O         140.6352  145.0876  162.4972 O.2     1  UNL1       -0.1498
     10 O         140.3142  144.0325  159.3158 O.2     1  UNL1       -0.2512
     11 C         141.4674  144.9451  159.6109 C.2     1  UNL1        0.3194
     12 N         141.9875  145.8648  158.5462 N.am    1  UNL1       -0.2894
     13 N         142.1006  144.9381  160.9707 N.am    1  UNL1       -0.1693
     14 H         142.7445  146.4638  158.7398 H       1  UNL1        0.1509
     15 H         142.8575  145.5371  161.1644 H       1  UNL1        0.1781
     16 C         141.3544  145.8719  157.1863 C.3     1  UNL1        0.0731
     17 C         140.0128  146.5125  156.9869 C.3     1  UNL1        0.0196
     18 C         139.3798  146.5195  155.6271 C.3     1  UNL1        0.0017
     19 C         140.0882  145.8859  154.4667 C.3     1  UNL1        0.0001
     20 C         141.4298  145.2453  154.6661 C.3     1  UNL1        0.0017
     21 C         142.0629  145.2383  156.0259 C.3     1  UNL1        0.0196
     22 O         139.5000  140.3397  166.2943 O.3     1  UNL1       -0.4755
     23 C         138.3617  139.4106  165.9924 C.3     1  UNL1        0.2054
     24 C         138.6372  137.9867  165.6092 C.3     1  UNL1        0.0488
     25 C         139.4881  137.6835  164.4116 C.3     1  UNL1        0.0212
     26 C         140.9183  137.2696  164.5932 C.3     1  UNL1        0.0722
     27 N         142.0165  138.2801  164.4422 N.3     1  UNL1       -0.2727
     28 C         142.3126  139.0830  163.2103 C.3     1  UNL1        0.0721
     29 C         143.4906  139.9642  163.5033 C.3     1  UNL1        0.0188
     30 C         143.9225  139.7060  164.9163 C.3     1  UNL1        0.0188
     31 C         143.0115  138.6651  165.4966 C.3     1  UNL1        0.0721
@<TRIPOS>BOND
     1    10    11    2
     2    11    12   am
     3    12    16    1
     4    16    17    1
     5    17    18    1
     6    18    19    1
     7    19    20    1
     8    20    21    1
     9    11    13   am
    10    13     7    1
    11     7     8    2
    12     7     9    2
    13     7     1    1
    14     1     2   ar
    15     2     3   ar
    16     3     4   ar
    17     4    22    1
    18    22    23    1
    19    23    24    1
    20    24    25    1
    21    25    26    1
    22    26    27    1
    23    27    28    1
    24    28    29    1
    25    29    30    1
    26    30    31    1
    27     4     5   ar
    28     5     6   ar
    29    21    16    1
    30     6     1   ar
    31    31    27    1
    32    12    14    1
    33    13    15    1
@<TRIPOS>MOLECULE
*****
 31 33 0 0 0
SMALL
GASTEIGER

@<TRIPOS>ATOM
      1 C         141.1340  143.5351  163.4022 C.ar    1  UNL1        0.1255
      2 C         141.4462  142.0763  163.5590 C.ar    1  UNL1        0.0233
      3 C         140.9441  141.3264  164.7572 C.ar    1  UNL1        0.0383
      4 C         140.1298  142.0353  165.7985 C.ar    1  UNL1        0.1386
      5 C         139.8176  143.4940  165.6417 C.ar    1  UNL1        0.0383
      6 C         140.3197  144.2439  164.4436 C.ar    1  UNL1        0.0233
      7 S         141.6361  144.2849  162.2041 S.O2    1  UNL1        0.0768
      8 O         140.8960  145.5076  162.6592 O.2     1  UNL1       -0.1498
      9 O         142.3763  143.0622  161.7490 O.2     1  UNL1       -0.1498
     10 O         140.0806  144.2293  159.6395 O.2     1  UNL1       -0.2512
     11 C         141.3605  145.0070  159.7236 C.2     1  UNL1        0.3194
     12 N         141.8626  145.7569  158.5255 N.am    1  UNL1       -0.2894
     13 N         142.1382  145.0348  161.0060 N.am    1  UNL1       -0.1693
     14 H         142.7026  146.2673  158.5808 H       1  UNL1        0.1509
     15 H         142.9783  145.5453  161.0613 H       1  UNL1        0.1781
     16 C         141.0848  145.7291  157.2432 C.3     1  UNL1        0.0731
     17 C         139.8656  146.5888  157.0867 C.3     1  UNL1        0.0196
     18 C         139.0879  146.5609  155.8044 C.3     1  UNL1        0.0017
     19 C         139.5294  145.6734  154.6786 C.3     1  UNL1        0.0001
     20 C         140.7485  144.8137  154.8351 C.3     1  UNL1        0.0017
     21 C         141.5262  144.8416  156.1174 C.3     1  UNL1        0.0196
     22 O         139.6277  141.2854  166.9966 O.3     1  UNL1       -0.4755
     23 C         139.6259  139.7854  166.9960 C.3     1  UNL1        0.2054
     24 C         138.3823  139.0370  166.6173 C.3     1  UNL1        0.0488
     25 C         138.4603  137.8943  165.6487 C.3     1  UNL1        0.0212
     26 C         139.7254  137.6460  164.8821 C.3     1  UNL1        0.0722
     27 N         139.7593  137.8673  163.3989 N.3     1  UNL1       -0.2727
     28 C         140.9921  138.0220  162.5584 C.3     1  UNL1        0.0721
     29 C         140.5610  138.2231  161.1358 C.3     1  UNL1        0.0188
     30 C         139.0618  138.1928  161.0970 C.3     1  UNL1        0.0188
     31 C         138.5664  137.9729  162.4957 C.3     1  UNL1        0.0721
@<TRIPOS>BOND
     1    10    11    2
     2    11    12   am
     3    12    16    1
     4    16    17    1
     5    17    18    1
     6    18    19    1
     7    19    20    1
     8    20    21    1
     9    11    13   am
    10    13     7    1
    11     7     8    2
    12     7     9    2
    13     7     1    1
    14     1     2   ar
    15     2     3   ar
    16     3     4   ar
    17     4    22    1
    18    22    23    1
    19    23    24    1
    20    24    25    1
    21    25    26    1
    22    26    27    1
    23    27    28    1
    24    28    29    1
    25    29    30    1
    26    30    31    1
    27     4     5   ar
    28     5     6   ar
    29    21    16    1
    30     6     1   ar
    31    31    27    1
    32    12    14    1
    33    13    15    1
@<TRIPOS>MOLECULE
*****
 31 33 0 0 0
SMALL
GASTEIGER

@<TRIPOS>ATOM
      1 C         138.4795  139.1048  163.1944 C.ar    1  UNL1        0.1255
      2 C         139.2064  138.0305  162.4411 C.ar    1  UNL1        0.0233
      3 C         139.3360  138.1171  160.9492 C.ar    1  UNL1        0.0383
      4 C         138.7387  139.2780  160.2106 C.ar    1  UNL1        0.1386
      5 C         138.0118  140.3523  160.9639 C.ar    1  UNL1        0.0383
      6 C         137.8821  140.2658  162.4558 C.ar    1  UNL1        0.0233
      7 S         138.3499  139.0183  164.6863 S.O2    1  UNL1        0.0768
      8 O         138.8921  137.6201  164.6522 O.2     1  UNL1       -0.1498
      9 O         137.8077  140.4164  164.7203 O.2     1  UNL1       -0.1498
     10 O         140.2602  140.5179  166.4474 O.2     1  UNL1       -0.2512
     11 C         139.1755  139.6815  167.0587 C.2     1  UNL1        0.3194
     12 N         139.0459  139.5950  168.5506 N.am    1  UNL1       -0.2894
     13 N         138.2203  138.9317  166.1781 N.am    1  UNL1       -0.1693
     14 H         138.3339  139.0460  168.9518 H       1  UNL1        0.1509
     15 H         137.5083  138.3827  166.5793 H       1  UNL1        0.1781
     16 C         140.0011  140.3448  169.4312 C.3     1  UNL1        0.0731
     17 C         139.6907  141.7522  169.8470 C.3     1  UNL1        0.0196
     18 C         140.6459  142.5020  170.7275 C.3     1  UNL1        0.0017
     19 C         141.9114  141.8444  171.1923 C.3     1  UNL1        0.0001
     20 C         142.2217  140.4370  170.7766 C.3     1  UNL1        0.0017
     21 C         141.2666  139.6872  169.8960 C.3     1  UNL1        0.0196
     22 O         138.8683  139.3646  158.7188 O.3     1  UNL1       -0.4755
     23 C         140.1147  139.9310  158.1058 C.3     1  UNL1        0.2054
     24 C         141.0483  140.7611  158.9361 C.3     1  UNL1        0.0488
     25 C         142.2530  140.1292  159.5682 C.3     1  UNL1        0.0212
     26 C         143.5080  140.9290  159.7556 C.3     1  UNL1        0.0722
     27 N         144.1587  140.9983  161.1053 N.3     1  UNL1       -0.2727
     28 C         144.8934  142.1776  161.6705 C.3     1  UNL1        0.0721
     29 C         145.3777  141.8086  163.0414 C.3     1  UNL1        0.0188
     30 C         144.9424  140.4011  163.3234 C.3     1  UNL1        0.0188
     31 C         144.1890  139.9003  162.1269 C.3     1  UNL1        0.0721
@<TRIPOS>BOND
     1    10    11    2
     2    11    12   am
     3    12    16    1
     4    16    17    1
     5    17    18    1
     6    18    19    1
     7    19    20    1
     8    20    21    1
     9    11    13   am
    10    13     7    1
    11     7     8    2
    12     7     9    2
    13     7     1    1
    14     1     2   ar
    15     2     3   ar
    16     3     4   ar
    17     4    22    1
    18    22    23    1
    19    23    24    1
    20    24    25    1
    21    25    26    1
    22    26    27    1
    23    27    28    1
    24    28    29    1
    25    29    30    1
    26    30    31    1
    27     4     5   ar
    28     5     6   ar
    29    21    16    1
    30     6     1   ar
    31    31    27    1
    32    12    14    1
    33    13    15    1
@<TRIPOS>MOLECULE
*****
 31 33 0 0 0
SMALL
GASTEIGER

@<TRIPOS>ATOM
      1 C         140.8610  143.4088  163.1358 C.ar    1  UNL1        0.1255
      2 C         140.5064  144.0188  164.4594 C.ar    1  UNL1        0.0233
      3 C         139.9659  143.1568  165.5617 C.ar    1  UNL1        0.0383
      4 C         139.7800  141.6850  165.3403 C.ar    1  UNL1        0.1386
      5 C         140.1346  141.0750  164.0166 C.ar    1  UNL1        0.0383
      6 C         140.6751  141.9369  162.9144 C.ar    1  UNL1        0.0233
      7 S         141.4015  144.2706  162.0335 S.O2    1  UNL1        0.0768
      8 O         142.2503  143.1293  161.5573 O.2     1  UNL1       -0.1498
      9 O         140.5527  145.4120  162.5097 O.2     1  UNL1       -0.1498
     10 O         140.1601  144.1692  159.3043 O.2     1  UNL1       -0.2512
     11 C         141.3213  145.0818  159.5666 C.2     1  UNL1        0.3194
     12 N         141.8619  145.9436  158.4643 N.am    1  UNL1       -0.2894
     13 N         141.9420  145.1325  160.9312 N.am    1  UNL1       -0.1693
     14 H         142.6240  146.5426  158.6365 H       1  UNL1        0.1509
     15 H         142.7042  145.7314  161.1034 H       1  UNL1        0.1781
     16 C         141.2412  145.8930  157.0997 C.3     1  UNL1        0.0731
     17 C         141.9016  145.1100  156.0039 C.3     1  UNL1        0.0196
     18 C         141.2809  145.0594  154.6393 C.3     1  UNL1        0.0017
     19 C         139.9997  145.7917  154.3705 C.3     1  UNL1        0.0001
     20 C         139.3392  146.5746  155.4662 C.3     1  UNL1        0.0017
     21 C         139.9600  146.6252  156.8308 C.3     1  UNL1        0.0196
     22 O         139.2394  140.8232  166.4426 O.3     1  UNL1       -0.4755
     23 C         140.1642  139.9384  167.2249 C.3     1  UNL1        0.2054
     24 C         141.6183  140.2886  167.3401 C.3     1  UNL1        0.0488
     25 C         142.6640  139.2469  167.0725 C.3     1  UNL1        0.0212
     26 C         143.3448  139.1934  165.7370 C.3     1  UNL1        0.0722
     27 N         142.6487  138.5679  164.5648 N.3     1  UNL1       -0.2727
     28 C         141.4736  137.6380  164.6306 C.3     1  UNL1        0.0721
     29 C         141.1041  137.2578  163.2274 C.3     1  UNL1        0.0188
     30 C         142.0509  137.9527  162.2943 C.3     1  UNL1        0.0188
     31 C         143.0055  138.7624  163.1209 C.3     1  UNL1        0.0721
@<TRIPOS>BOND
     1    10    11    2
     2    11    12   am
     3    12    16    1
     4    16    17    1
     5    17    18    1
     6    18    19    1
     7    19    20    1
     8    20    21    1
     9    11    13   am
    10    13     7    1
    11     7     8    2
    12     7     9    2
    13     7     1    1
    14     1     2   ar
    15     2     3   ar
    16     3     4   ar
    17     4    22    1
    18    22    23    1
    19    23    24    1
    20    24    25    1
    21    25    26    1
    22    26    27    1
    23    27    28    1
    24    28    29    1
    25    29    30    1
    26    30    31    1
    27     4     5   ar
    28     5     6   ar
    29    21    16    1
    30     6     1   ar
    31    31    27    1
    32    12    14    1
    33    13    15    1
@<TRIPOS>MOLECULE
*****
 31 33 0 0 0
SMALL
GASTEIGER

@<TRIPOS>ATOM
      1 C         141.2898  138.3424  162.7611 C.ar    1  UNL1        0.1255
      2 C         139.8033  138.1720  162.6550 C.ar    1  UNL1        0.0233
      3 C         139.1345  138.2394  161.3140 C.ar    1  UNL1        0.0383
      4 C         139.9522  138.4772  160.0792 C.ar    1  UNL1        0.1386
      5 C         141.4387  138.6477  160.1853 C.ar    1  UNL1        0.0383
      6 C         142.1075  138.5803  161.5262 C.ar    1  UNL1        0.0233
      7 S         141.9586  138.2751  164.1020 S.O2    1  UNL1        0.0768
      8 O         140.9271  137.2903  164.5670 O.2     1  UNL1       -0.1498
      9 O         142.9901  139.2598  163.6371 O.2     1  UNL1       -0.1498
     10 O         141.1825  140.2047  166.2641 O.2     1  UNL1       -0.2512
     11 C         142.2394  139.1725  166.5240 C.2     1  UNL1        0.3194
     12 N         142.9082  139.1051  167.8649 N.am    1  UNL1       -0.2894
     13 N         142.6274  138.2077  165.4430 N.am    1  UNL1       -0.1693
     14 H         143.6018  138.4277  168.0355 H       1  UNL1        0.1509
     15 H         143.3211  137.5302  165.6136 H       1  UNL1        0.1781
     16 C         142.5201  140.0699  168.9460 C.3     1  UNL1        0.0731
     17 C         141.5015  139.6748  169.9737 C.3     1  UNL1        0.0196
     18 C         141.1135  140.6396  171.0547 C.3     1  UNL1        0.0017
     19 C         141.7441  141.9996  171.1079 C.3     1  UNL1        0.0001
     20 C         142.7626  142.3947  170.0802 C.3     1  UNL1        0.0017
     21 C         143.1507  141.4299  168.9992 C.3     1  UNL1        0.0196
     22 O         139.2834  138.5446  158.7383 O.3     1  UNL1       -0.4755
     23 C         138.7499  139.8516  158.2311 C.3     1  UNL1        0.2054
     24 C         139.2860  141.1424  158.7755 C.3     1  UNL1        0.0488
     25 C         138.5597  141.8493  159.8813 C.3     1  UNL1        0.0212
     26 C         139.3315  142.5986  160.9266 C.3     1  UNL1        0.0722
     27 N         138.7458  142.7967  162.2932 N.3     1  UNL1       -0.2727
     28 C         138.4947  141.7221  163.3091 C.3     1  UNL1        0.0721
     29 C         137.9021  142.3654  164.5277 C.3     1  UNL1        0.0188
     30 C         137.7870  143.8378  164.2650 C.3     1  UNL1        0.0188
     31 C         138.3084  144.1043  162.8840 C.3     1  UNL1        0.0721
@<TRIPOS>BOND
     1    10    11    2
     2    11    12   am
     3    12    16    1
     4    16    17    1
     5    17    18    1
     6    18    19    1
     7    19    20    1
     8    20    21    1
     9    11    13   am
    10    13     7    1
    11     7     8    2
    12     7     9    2
    13     7     1    1
    14     1     2   ar
    15     2     3   ar
    16     3     4   ar
    17     4    22    1
    18    22    23    1
    19    23    24    1
    20    24    25    1
    21    25    26    1
    22    26    27    1
    23    27    28    1
    24    28    29    1
    25    29    30    1
    26    30    31    1
    27     4     5   ar
    28     5     6   ar
    29    21    16    1
    30     6     1   ar
    31    31    27    1
    32    12    14    1
    33    13    15    1
@<TRIPOS>MOLECULE
*****
 31 33 0 0 0
SMALL
GASTEIGER

@<TRIPOS>ATOM
      1 C         138.8115  139.2753  162.8560 C.ar    1  UNL1        0.1255
      2 C         137.7315  140.0328  162.1421 C.ar    1  UNL1        0.0233
      3 C         137.6847  140.0383  160.6427 C.ar    1  UNL1        0.0383
      4 C         138.7181  139.2864  159.8574 C.ar    1  UNL1        0.1386
      5 C         139.7982  138.5289  160.5713 C.ar    1  UNL1        0.0383
      6 C         139.8449  138.5234  162.0705 C.ar    1  UNL1        0.0233
      7 S         138.8583  139.2698  164.3552 S.O2    1  UNL1        0.0768
      8 O         139.7593  138.0710  164.3226 O.2     1  UNL1       -0.1498
      9 O         137.9573  140.4685  164.3877 O.2     1  UNL1       -0.1498
     10 O         140.8151  141.0247  165.8014 O.2     1  UNL1       -0.2512
     11 C         139.8835  140.1417  166.5776 C.2     1  UNL1        0.3194
     12 N         139.9302  140.1362  168.0768 N.am    1  UNL1       -0.2894
     13 N         138.9051  139.2642  165.8544 N.am    1  UNL1       -0.1693
     14 H         139.3188  139.5566  168.5862 H       1  UNL1        0.1509
     15 H         138.2936  138.6847  166.3638 H       1  UNL1        0.1781
     16 C         140.9086  141.0136  168.7999 C.3     1  UNL1        0.0731
     17 C         140.5056  142.3943  169.2256 C.3     1  UNL1        0.0196
     18 C         141.4840  143.2717  169.9487 C.3     1  UNL1        0.0017
     19 C         142.8654  142.7683  170.2461 C.3     1  UNL1        0.0001
     20 C         143.2684  141.3877  169.8204 C.3     1  UNL1        0.0017
     21 C         142.2900  140.5103  169.0973 C.3     1  UNL1        0.0196
     22 O         138.6713  139.2920  158.3582 O.3     1  UNL1       -0.4755
     23 C         138.6832  140.5933  157.6122 C.3     1  UNL1        0.2054
     24 C         139.8663  141.5090  157.7205 C.3     1  UNL1        0.0488
     25 C         139.7826  142.7457  158.5653 C.3     1  UNL1        0.0212
     26 C         140.2054  142.7015  160.0037 C.3     1  UNL1        0.0722
     27 N         139.9014  143.8569  160.9107 N.3     1  UNL1       -0.2727
     28 C         139.1402  143.7881  162.2014 C.3     1  UNL1        0.0721
     29 C         139.0735  145.1726  162.7746 C.3     1  UNL1        0.0188
     30 C         139.7935  146.0972  161.8383 C.3     1  UNL1        0.0188
     31 C         140.3052  145.2840  160.6863 C.3     1  UNL1        0.0721
@<TRIPOS>BOND
     1    10    11    2
     2    11    12   am
     3    12    16    1
     4    16    17    1
     5    17    18    1
     6    18    19    1
     7    19    20    1
     8    20    21    1
     9    11    13   am
    10    13     7    1
    11     7     8    2
    12     7     9    2
    13     7     1    1
    14     1     2   ar
    15     2     3   ar
    16     3     4   ar
    17     4    22    1
    18    22    23    1
    19    23    24    1
    20    24    25    1
    21    25    26    1
    22    26    27    1
    23    27    28    1
    24    28    29    1
    25    29    30    1
    26    30    31    1
    27     4     5   ar
    28     5     6   ar
    29    21    16    1
    30     6     1   ar
    31    31    27    1
    32    12    14    1
    33    13    15    1
@<TRIPOS>MOLECULE
*****
 31 33 0 0 0
SMALL
GASTEIGER

@<TRIPOS>ATOM
      1 C         138.7700  138.8307  163.1384 C.ar    1  UNL1        0.1255
      2 C         139.0833  137.6271  163.9771 C.ar    1  UNL1        0.0233
      3 C         138.9581  137.7002  165.4701 C.ar    1  UNL1        0.0383
      4 C         138.5196  138.9767  166.1244 C.ar    1  UNL1        0.1386
      5 C         138.2063  140.1802  165.2857 C.ar    1  UNL1        0.0383
      6 C         138.3315  140.1072  163.7928 C.ar    1  UNL1        0.0233
      7 S         138.8952  138.7577  161.6455 S.O2    1  UNL1        0.0768
      8 O         140.2997  139.2762  161.7379 O.2     1  UNL1       -0.1498
      9 O         137.4908  138.2391  161.5530 O.2     1  UNL1       -0.1498
     10 O         137.9421  141.0395  159.9469 O.2     1  UNL1       -0.2512
     11 C         138.5439  139.8256  159.3032 C.2     1  UNL1        0.3194
     12 N         138.6691  139.7526  157.8102 N.am    1  UNL1       -0.2894
     13 N         139.0205  138.6847  160.1525 N.am    1  UNL1       -0.1693
     14 H         139.0641  138.9559  157.3878 H       1  UNL1        0.1509
     15 H         139.4154  137.8880  159.7300 H       1  UNL1        0.1781
     16 C         138.1926  140.8936  156.9609 C.3     1  UNL1        0.0731
     17 C         139.1610  141.9439  156.5038 C.3     1  UNL1        0.0196
     18 C         138.6844  143.0847  155.6546 C.3     1  UNL1        0.0017
     19 C         137.2394  143.1752  155.2624 C.3     1  UNL1        0.0001
     20 C         136.2710  142.1250  155.7195 C.3     1  UNL1        0.0017
     21 C         136.7476  140.9841  156.5688 C.3     1  UNL1        0.0196
     22 O         138.3943  139.0497  167.6173 O.3     1  UNL1       -0.4755
     23 C         139.2832  139.9698  168.4004 C.3     1  UNL1        0.2054
     24 C         140.7525  140.0261  168.1031 C.3     1  UNL1        0.0488
     25 C         141.2903  141.0751  167.1756 C.3     1  UNL1        0.0212
     26 C         142.7277  141.0335  166.7491 C.3     1  UNL1        0.0722
     27 N         143.1165  140.3133  165.4920 N.3     1  UNL1       -0.2727
     28 C         142.4874  139.0580  164.9645 C.3     1  UNL1        0.0721
     29 C         143.1847  138.6909  163.6882 C.3     1  UNL1        0.0188
     30 C         144.2448  139.7194  163.4269 C.3     1  UNL1        0.0188
     31 C         144.2026  140.7221  164.5417 C.3     1  UNL1        0.0721
@<TRIPOS>BOND
     1    10    11    2
     2    11    12   am
     3    12    16    1
     4    16    17    1
     5    17    18    1
     6    18    19    1
     7    19    20    1
     8    20    21    1
     9    11    13   am
    10    13     7    1
    11     7     8    2
    12     7     9    2
    13     7     1    1
    14     1     2   ar
    15     2     3   ar
    16     3     4   ar
    17     4    22    1
    18    22    23    1
    19    23    24    1
    20    24    25    1
    21    25    26    1
    22    26    27    1
    23    27    28    1
    24    28    29    1
    25    29    30    1
    26    30    31    1
    27     4     5   ar
    28     5     6   ar
    29    21    16    1
    30     6     1   ar
    31    31    27    1
    32    12    14    1
    33    13    15    1
