@<TRIPOS>MOLECULE
*****
 30 34 0 0 0
SMALL
GASTEIGER

@<TRIPOS>ATOM
      1 C         142.7857  138.4091  159.7620 C.ar    1  UNL1        0.0344
      2 C         143.4722  139.7427  159.7562 C.ar    1  UNL1        0.0061
      3 C         144.0362  140.3013  161.0289 C.ar    1  UNL1        0.0370
      4 C         143.9137  139.5263  162.3074 C.ar    1  UNL1        0.1384
      5 C         143.2271  138.1926  162.3131 C.ar    1  UNL1        0.0370
      6 C         142.6631  137.6340  161.0404 C.ar    1  UNL1        0.0061
      7 C         139.9801  139.0840  158.9412 C.3     1  UNL1        0.1350
      8 N         140.8188  138.1878  158.0788 N.ar    1  UNL1       -0.2786
      9 C         142.2216  137.8504  158.4892 C.ar    1  UNL1        0.1460
     10 N         143.0603  136.9543  157.6269 N.ar    1  UNL1       -0.2280
     11 C         142.4962  136.3957  156.3542 C.ar    1  UNL1        0.0875
     12 C         143.3349  135.4996  155.4919 C.ar    1  UNL1        0.0193
     13 C         142.7709  134.9410  154.2192 C.ar    1  UNL1        0.0015
     14 C         141.3681  135.2784  153.8088 C.ar    1  UNL1        0.0003
     15 C         140.5294  136.1745  154.6711 C.ar    1  UNL1        0.0063
     16 C         141.0935  136.7331  155.9438 C.ar    1  UNL1        0.0739
     17 C         140.2548  137.6292  156.8062 C.ar    1  UNL1        0.2634
     18 O         138.8520  137.9667  156.3958 O.2     1  UNL1       -0.2669
     19 O         144.4777  140.0850  163.5801 O.3     1  UNL1       -0.4791
     20 C         143.5781  140.3302  164.7551 C.3     1  UNL1        0.1687
     21 C         142.8557  141.6382  164.8864 C.3     1  UNL1        0.0609
     22 C         141.9562  141.8835  166.0614 C.3     1  UNL1        0.0758
     23 N         141.7789  140.8207  167.1050 N.3     1  UNL1       -0.2737
     24 C         142.5013  139.5127  166.9737 C.3     1  UNL1        0.0758
     25 C         143.4010  139.2675  165.7987 C.3     1  UNL1        0.0609
     26 C         140.8794  141.0660  168.2800 C.3     1  UNL1        0.0575
     27 C         140.8730  142.2915  169.1448 C.3     1  UNL1        0.0160
     28 C         139.8179  142.1118  170.1957 C.3     1  UNL1        0.0014
     29 C         139.1722  140.7751  169.9804 C.3     1  UNL1        0.0014
     30 C         139.8282  140.1287  168.7964 C.3     1  UNL1        0.0160
@<TRIPOS>BOND
     1     7     8    1
     2     8     9   ar
     3     9     1    1
     4     1     2   ar
     5     2     3   ar
     6     3     4   ar
     7     4    19    1
     8    19    20    1
     9    20    21    1
    10    21    22    1
    11    22    23    1
    12    23    26    1
    13    26    27    1
    14    27    28    1
    15    28    29    1
    16    29    30    1
    17    23    24    1
    18    24    25    1
    19     4     5   ar
    20     5     6   ar
    21     9    10   ar
    22    10    11   ar
    23    11    12   ar
    24    12    13   ar
    25    13    14   ar
    26    14    15   ar
    27    15    16   ar
    28    16    17   ar
    29    17    18    2
    30    17     8   ar
    31     6     1   ar
    32    16    11   ar
    33    25    20    1
    34    30    26    1
@<TRIPOS>MOLECULE
*****
 30 34 0 0 0
SMALL
GASTEIGER

@<TRIPOS>ATOM
      1 C         143.1712  136.6337  156.5630 C.ar    1  UNL1        0.0344
      2 C         142.4616  137.4116  157.6314 C.ar    1  UNL1        0.0061
      3 C         142.5503  138.9087  157.6531 C.ar    1  UNL1        0.0370
      4 C         143.3485  139.6281  156.6065 C.ar    1  UNL1        0.1384
      5 C         144.0581  138.8503  155.5382 C.ar    1  UNL1        0.0370
      6 C         143.9694  137.3531  155.5164 C.ar    1  UNL1        0.0061
      7 C         140.9830  135.2831  155.0178 C.3     1  UNL1        0.1350
      8 N         141.9884  134.4611  155.7685 N.ar    1  UNL1       -0.2786
      9 C         143.0825  135.1365  156.5411 C.ar    1  UNL1        0.1460
     10 N         144.0879  134.3146  157.2919 N.ar    1  UNL1       -0.2280
     11 C         143.9992  132.8173  157.2701 C.ar    1  UNL1        0.0875
     12 C         145.0046  131.9955  158.0208 C.ar    1  UNL1        0.0193
     13 C         144.9159  130.4983  157.9990 C.ar    1  UNL1        0.0015
     14 C         143.8218  129.8230  157.2264 C.ar    1  UNL1        0.0003
     15 C         142.8165  130.6448  156.4756 C.ar    1  UNL1        0.0063
     16 C         142.9051  132.1420  156.4975 C.ar    1  UNL1        0.0739
     17 C         141.8997  132.9640  155.7467 C.ar    1  UNL1        0.2634
     18 O         140.8056  132.2886  154.9741 O.2     1  UNL1       -0.2669
     19 O         143.4372  141.1254  156.6284 O.3     1  UNL1       -0.4791
     20 C         143.3295  141.8642  157.9293 C.3     1  UNL1        0.1687
     21 C         142.0733  142.6118  158.2656 C.3     1  UNL1        0.0609
     22 C         141.9657  143.3506  159.5665 C.3     1  UNL1        0.0758
     23 N         143.1143  143.3418  160.5313 N.3     1  UNL1       -0.2737
     24 C         144.3704  142.5942  160.1951 C.3     1  UNL1        0.0758
     25 C         144.4781  141.8553  158.8940 C.3     1  UNL1        0.0609
     26 C         143.0066  144.0806  161.8323 C.3     1  UNL1        0.0575
     27 C         141.7572  144.6828  162.4034 C.3     1  UNL1        0.0160
     28 C         142.1078  145.3213  163.7147 C.3     1  UNL1        0.0014
     29 C         143.5740  145.1137  163.9539 C.3     1  UNL1        0.0014
     30 C         144.1295  144.3470  162.7905 C.3     1  UNL1        0.0160
@<TRIPOS>BOND
     1     7     8    1
     2     8     9   ar
     3     9     1    1
     4     1     2   ar
     5     2     3   ar
     6     3     4   ar
     7     4    19    1
     8    19    20    1
     9    20    21    1
    10    21    22    1
    11    22    23    1
    12    23    26    1
    13    26    27    1
    14    27    28    1
    15    28    29    1
    16    29    30    1
    17    23    24    1
    18    24    25    1
    19     4     5   ar
    20     5     6   ar
    21     9    10   ar
    22    10    11   ar
    23    11    12   ar
    24    12    13   ar
    25    13    14   ar
    26    14    15   ar
    27    15    16   ar
    28    16    17   ar
    29    17    18    2
    30    17     8   ar
    31     6     1   ar
    32    16    11   ar
    33    25    20    1
    34    30    26    1
@<TRIPOS>MOLECULE
*****
 30 34 0 0 0
SMALL
GASTEIGER

@<TRIPOS>ATOM
      1 C         138.2989  140.1431  160.0416 C.ar    1  UNL1        0.0344
      2 C         137.6792  140.5785  161.3363 C.ar    1  UNL1        0.0061
      3 C         137.9063  139.7768  162.5836 C.ar    1  UNL1        0.0370
      4 C         138.7531  138.5396  162.5361 C.ar    1  UNL1        0.1384
      5 C         139.3728  138.1042  161.2414 C.ar    1  UNL1        0.0370
      6 C         139.1457  138.9059  159.9942 C.ar    1  UNL1        0.0061
      7 C         139.9184  142.6166  159.5328 C.3     1  UNL1        0.1350
      8 N         138.8815  142.1816  158.5399 N.ar    1  UNL1       -0.2786
      9 C         138.0717  140.9448  158.7943 C.ar    1  UNL1        0.1460
     10 N         137.0349  140.5098  157.8015 N.ar    1  UNL1       -0.2280
     11 C         136.8078  141.3116  156.5542 C.ar    1  UNL1        0.0875
     12 C         135.7709  140.8766  155.5614 C.ar    1  UNL1        0.0193
     13 C         135.5439  141.6783  154.3142 C.ar    1  UNL1        0.0015
     14 C         136.3537  142.9150  154.0598 C.ar    1  UNL1        0.0003
     15 C         137.3905  143.3500  155.0526 C.ar    1  UNL1        0.0063
     16 C         137.6176  142.5483  156.2998 C.ar    1  UNL1        0.0739
     17 C         138.6545  142.9833  157.2927 C.ar    1  UNL1        0.2634
     18 O         139.4642  144.2200  157.0382 O.2     1  UNL1       -0.2669
     19 O         138.9802  137.7379  163.7834 O.3     1  UNL1       -0.4791
     20 C         139.2973  138.4328  165.0743 C.3     1  UNL1        0.1687
     21 C         138.2333  138.5971  166.1187 C.3     1  UNL1        0.0609
     22 C         138.5504  139.2921  167.4096 C.3     1  UNL1        0.0758
     23 N         139.9316  139.8227  167.6562 N.3     1  UNL1       -0.2737
     24 C         140.9957  139.6584  166.6118 C.3     1  UNL1        0.0758
     25 C         140.6785  138.9634  165.3208 C.3     1  UNL1        0.0609
     26 C         140.2487  140.5176  168.9471 C.3     1  UNL1        0.0575
     27 C         140.0593  141.9781  169.2318 C.3     1  UNL1        0.0160
     28 C         140.5044  142.2372  170.6406 C.3     1  UNL1        0.0014
     29 C         140.9690  140.9368  171.2266 C.3     1  UNL1        0.0014
     30 C         140.8109  139.8741  170.1799 C.3     1  UNL1        0.0160
@<TRIPOS>BOND
     1     7     8    1
     2     8     9   ar
     3     9     1    1
     4     1     2   ar
     5     2     3   ar
     6     3     4   ar
     7     4    19    1
     8    19    20    1
     9    20    21    1
    10    21    22    1
    11    22    23    1
    12    23    26    1
    13    26    27    1
    14    27    28    1
    15    28    29    1
    16    29    30    1
    17    23    24    1
    18    24    25    1
    19     4     5   ar
    20     5     6   ar
    21     9    10   ar
    22    10    11   ar
    23    11    12   ar
    24    12    13   ar
    25    13    14   ar
    26    14    15   ar
    27    15    16   ar
    28    16    17   ar
    29    17    18    2
    30    17     8   ar
    31     6     1   ar
    32    16    11   ar
    33    25    20    1
    34    30    26    1
@<TRIPOS>MOLECULE
*****
 30 34 0 0 0
SMALL
GASTEIGER

@<TRIPOS>ATOM
      1 C         140.4159  139.3153  159.8955 C.ar    1  UNL1        0.0344
      2 C         139.5324  138.7919  158.8023 C.ar    1  UNL1        0.0061
      3 C         140.1341  138.0743  157.6306 C.ar    1  UNL1        0.0370
      4 C         141.6194  137.8802  157.5522 C.ar    1  UNL1        0.1384
      5 C         142.5030  138.4036  158.6454 C.ar    1  UNL1        0.0370
      6 C         141.9012  139.1212  159.8171 C.ar    1  UNL1        0.0061
      7 C         139.6346  137.7826  162.3532 C.3     1  UNL1        0.1350
      8 N         139.4235  139.2666  162.2961 N.ar    1  UNL1       -0.2786
      9 C         139.8141  140.0330  161.0673 C.ar    1  UNL1        0.1460
     10 N         139.6030  141.5169  161.0102 N.ar    1  UNL1       -0.2280
     11 C         139.0013  142.2346  162.1820 C.ar    1  UNL1        0.0875
     12 C         138.7902  143.7185  162.1248 C.ar    1  UNL1        0.0193
     13 C         138.1884  144.4360  163.2966 C.ar    1  UNL1        0.0015
     14 C         137.7978  143.6696  164.5254 C.ar    1  UNL1        0.0003
     15 C         138.0089  142.1857  164.5825 C.ar    1  UNL1        0.0063
     16 C         138.6106  141.4682  163.4108 C.ar    1  UNL1        0.0739
     17 C         138.8218  139.9841  163.4679 C.ar    1  UNL1        0.2634
     18 O         138.4311  139.2177  164.6967 O.2     1  UNL1       -0.2669
     19 O         142.2212  137.1625  156.3804 O.3     1  UNL1       -0.4791
     20 C         142.3231  135.6661  156.3891 C.3     1  UNL1        0.1687
     21 C         141.4745  134.8511  155.4587 C.3     1  UNL1        0.0609
     22 C         141.5764  133.3546  155.4674 C.3     1  UNL1        0.0758
     23 N         142.5270  132.6730  156.4066 N.3     1  UNL1       -0.2737
     24 C         143.3756  133.4880  157.3370 C.3     1  UNL1        0.0758
     25 C         143.2737  134.9846  157.3282 C.3     1  UNL1        0.0609
     26 C         142.6289  131.1766  156.4153 C.3     1  UNL1        0.0575
     27 C         141.9458  130.2408  155.4626 C.3     1  UNL1        0.0160
     28 C         142.3265  128.8390  155.8367 C.3     1  UNL1        0.0014
     29 C         143.2450  128.9084  157.0207 C.3     1  UNL1        0.0014
     30 C         143.4318  130.3531  157.3783 C.3     1  UNL1        0.0160
@<TRIPOS>BOND
     1     7     8    1
     2     8     9   ar
     3     9     1    1
     4     1     2   ar
     5     2     3   ar
     6     3     4   ar
     7     4    19    1
     8    19    20    1
     9    20    21    1
    10    21    22    1
    11    22    23    1
    12    23    26    1
    13    26    27    1
    14    27    28    1
    15    28    29    1
    16    29    30    1
    17    23    24    1
    18    24    25    1
    19     4     5   ar
    20     5     6   ar
    21     9    10   ar
    22    10    11   ar
    23    11    12   ar
    24    12    13   ar
    25    13    14   ar
    26    14    15   ar
    27    15    16   ar
    28    16    17   ar
    29    17    18    2
    30    17     8   ar
    31     6     1   ar
    32    16    11   ar
    33    25    20    1
    34    30    26    1
@<TRIPOS>MOLECULE
*****
 30 34 0 0 0
SMALL
GASTEIGER

@<TRIPOS>ATOM
      1 C         139.4367  139.0734  159.8964 C.ar    1  UNL1        0.0344
      2 C         139.0942  138.0936  160.9792 C.ar    1  UNL1        0.0061
      3 C         138.5202  138.5801  162.2767 C.ar    1  UNL1        0.0370
      4 C         138.2887  140.0464  162.4916 C.ar    1  UNL1        0.1384
      5 C         138.6312  141.0263  161.4088 C.ar    1  UNL1        0.0370
      6 C         139.2053  140.5398  160.1112 C.ar    1  UNL1        0.0061
      7 C         142.4078  138.8089  159.5761 C.3     1  UNL1        0.1350
      8 N         141.4964  138.4547  158.4386 N.ar    1  UNL1       -0.2786
      9 C         140.0108  138.5870  158.5987 C.ar    1  UNL1        0.1460
     10 N         139.0993  138.2328  157.4613 N.ar    1  UNL1       -0.2280
     11 C         139.6734  137.7463  156.1636 C.ar    1  UNL1        0.0875
     12 C         138.7619  137.3922  155.0262 C.ar    1  UNL1        0.0193
     13 C         139.3360  136.9057  153.7287 C.ar    1  UNL1        0.0015
     14 C         140.8216  136.7734  153.5685 C.ar    1  UNL1        0.0003
     15 C         141.7330  137.1276  154.7059 C.ar    1  UNL1        0.0063
     16 C         141.1589  137.6140  156.0035 C.ar    1  UNL1        0.0739
     17 C         142.0704  137.9682  157.1410 C.ar    1  UNL1        0.2634
     18 O         143.5560  137.8359  156.9808 O.2     1  UNL1       -0.2669
     19 O         137.7146  140.5329  163.7892 O.3     1  UNL1       -0.4791
     20 C         138.6277  140.9472  164.9048 C.3     1  UNL1        0.1687
     21 C         139.2230  142.3240  164.9148 C.3     1  UNL1        0.0609
     22 C         140.1361  142.7382  166.0304 C.3     1  UNL1        0.0758
     23 N         140.4540  141.7756  167.1361 N.3     1  UNL1       -0.2737
     24 C         139.8587  140.3988  167.1261 C.3     1  UNL1        0.0758
     25 C         138.9456  139.9846  166.0104 C.3     1  UNL1        0.0609
     26 C         141.3671  142.1899  168.2517 C.3     1  UNL1        0.0575
     27 C         142.8111  141.8106  168.3960 C.3     1  UNL1        0.0160
     28 C         143.3330  142.4424  169.6524 C.3     1  UNL1        0.0014
     29 C         142.2114  143.2122  170.2846 C.3     1  UNL1        0.0014
     30 C         140.9964  143.0561  169.4189 C.3     1  UNL1        0.0160
@<TRIPOS>BOND
     1     7     8    1
     2     8     9   ar
     3     9     1    1
     4     1     2   ar
     5     2     3   ar
     6     3     4   ar
     7     4    19    1
     8    19    20    1
     9    20    21    1
    10    21    22    1
    11    22    23    1
    12    23    26    1
    13    26    27    1
    14    27    28    1
    15    28    29    1
    16    29    30    1
    17    23    24    1
    18    24    25    1
    19     4     5   ar
    20     5     6   ar
    21     9    10   ar
    22    10    11   ar
    23    11    12   ar
    24    12    13   ar
    25    13    14   ar
    26    14    15   ar
    27    15    16   ar
    28    16    17   ar
    29    17    18    2
    30    17     8   ar
    31     6     1   ar
    32    16    11   ar
    33    25    20    1
    34    30    26    1
@<TRIPOS>MOLECULE
*****
 30 34 0 0 0
SMALL
GASTEIGER

@<TRIPOS>ATOM
      1 C         140.6794  139.3921  164.7771 C.ar    1  UNL1        0.0344
      2 C         140.0716  140.2052  163.6729 C.ar    1  UNL1        0.0061
      3 C         140.1798  139.7390  162.2513 C.ar    1  UNL1        0.0370
      4 C         140.8958  138.4597  161.9340 C.ar    1  UNL1        0.1384
      5 C         141.5036  137.6466  163.0382 C.ar    1  UNL1        0.0370
      6 C         141.3954  138.1128  164.4598 C.ar    1  UNL1        0.0061
      7 C         138.3144  138.5941  166.4414 C.3     1  UNL1        0.1350
      8 N         139.3887  139.4593  167.0309 N.ar    1  UNL1       -0.2786
      9 C         140.5712  139.8583  166.1988 C.ar    1  UNL1        0.1460
     10 N         141.6455  140.7234  166.7882 N.ar    1  UNL1       -0.2280
     11 C         141.5373  141.1896  168.2098 C.ar    1  UNL1        0.0875
     12 C         142.6116  142.0547  168.7993 C.ar    1  UNL1        0.0193
     13 C         142.5033  142.5208  170.2209 C.ar    1  UNL1        0.0015
     14 C         141.3208  142.1219  171.0530 C.ar    1  UNL1        0.0003
     15 C         140.2466  141.2567  170.4636 C.ar    1  UNL1        0.0063
     16 C         140.3548  140.7906  169.0420 C.ar    1  UNL1        0.0739
     17 C         139.2805  139.9254  168.4525 C.ar    1  UNL1        0.2634
     18 O         138.0980  139.5265  169.2847 O.2     1  UNL1       -0.2669
     19 O         141.0040  137.9935  160.5123 O.3     1  UNL1       -0.4791
     20 C         141.9890  138.6399  159.5840 C.3     1  UNL1        0.1687
     21 C         142.0086  138.2648  158.1318 C.3     1  UNL1        0.0609
     22 C         142.9937  138.9112  157.2034 C.3     1  UNL1        0.0758
     23 N         143.9592  139.9327  157.7273 N.3     1  UNL1       -0.2737
     24 C         143.9396  140.3078  159.1795 C.3     1  UNL1        0.0758
     25 C         142.9545  139.6614  160.1078 C.3     1  UNL1        0.0609
     26 C         144.9442  140.5791  156.7989 C.3     1  UNL1        0.0575
     27 C         145.3868  140.0421  155.4701 C.3     1  UNL1        0.0160
     28 C         146.3757  141.0071  154.8863 C.3     1  UNL1        0.0014
     29 C         146.5443  142.1405  155.8543 C.3     1  UNL1        0.0014
     30 C         145.6596  141.8760  157.0364 C.3     1  UNL1        0.0160
@<TRIPOS>BOND
     1     7     8    1
     2     8     9   ar
     3     9     1    1
     4     1     2   ar
     5     2     3   ar
     6     3     4   ar
     7     4    19    1
     8    19    20    1
     9    20    21    1
    10    21    22    1
    11    22    23    1
    12    23    26    1
    13    26    27    1
    14    27    28    1
    15    28    29    1
    16    29    30    1
    17    23    24    1
    18    24    25    1
    19     4     5   ar
    20     5     6   ar
    21     9    10   ar
    22    10    11   ar
    23    11    12   ar
    24    12    13   ar
    25    13    14   ar
    26    14    15   ar
    27    15    16   ar
    28    16    17   ar
    29    17    18    2
    30    17     8   ar
    31     6     1   ar
    32    16    11   ar
    33    25    20    1
    34    30    26    1
@<TRIPOS>MOLECULE
*****
 30 34 0 0 0
SMALL
GASTEIGER

@<TRIPOS>ATOM
      1 C         142.4451  138.7356  159.6259 C.ar    1  UNL1        0.0344
      2 C         143.1731  138.0234  160.7271 C.ar    1  UNL1        0.0061
      3 C         142.4443  137.6352  161.9793 C.ar    1  UNL1        0.0370
      4 C         140.9876  137.9592  162.1304 C.ar    1  UNL1        0.1384
      5 C         140.2596  138.6714  161.0291 C.ar    1  UNL1        0.0370
      6 C         140.9884  139.0596  159.7769 C.ar    1  UNL1        0.0061
      7 C         142.0844  137.1256  157.1203 C.3     1  UNL1        0.1350
      8 N         142.9936  138.3188  157.1207 N.ar    1  UNL1       -0.2786
      9 C         143.1739  139.1238  158.3735 C.ar    1  UNL1        0.1460
     10 N         144.0830  140.3169  158.3741 N.ar    1  UNL1       -0.2280
     11 C         144.8118  140.7050  157.1217 C.ar    1  UNL1        0.0875
     12 C         145.7209  141.8981  157.1223 C.ar    1  UNL1        0.0193
     13 C         146.4496  142.2863  155.8700 C.ar    1  UNL1        0.0015
     14 C         146.2693  141.4813  154.6172 C.ar    1  UNL1        0.0003
     15 C         145.3602  140.2882  154.6167 C.ar    1  UNL1        0.0063
     16 C         144.6315  139.9001  155.8689 C.ar    1  UNL1        0.0739
     17 C         143.7223  138.7069  155.8685 C.ar    1  UNL1        0.2634
     18 O         143.5420  137.9020  154.6157 O.2     1  UNL1       -0.2669
     19 O         140.2588  137.5710  163.3827 O.3     1  UNL1       -0.4791
     20 C         140.2314  138.5063  164.5550 C.3     1  UNL1        0.1687
     21 C         138.9824  139.2736  164.8734 C.3     1  UNL1        0.0609
     22 C         138.9551  140.2089  166.0457 C.3     1  UNL1        0.0758
     23 N         140.1768  140.3769  166.8998 N.3     1  UNL1       -0.2737
     24 C         141.4257  139.6097  166.5815 C.3     1  UNL1        0.0758
     25 C         141.4530  138.6743  165.4090 C.3     1  UNL1        0.0609
     26 C         140.1494  141.3122  168.0722 C.3     1  UNL1        0.0575
     27 C         140.6131  142.7387  168.0730 C.3     1  UNL1        0.0160
     28 C         140.4038  143.2934  169.4508 C.3     1  UNL1        0.0014
     29 C         139.8108  142.2096  170.3017 C.3     1  UNL1        0.0014
     30 C         139.6536  140.9852  169.4496 C.3     1  UNL1        0.0160
@<TRIPOS>BOND
     1     7     8    1
     2     8     9   ar
     3     9     1    1
     4     1     2   ar
     5     2     3   ar
     6     3     4   ar
     7     4    19    1
     8    19    20    1
     9    20    21    1
    10    21    22    1
    11    22    23    1
    12    23    26    1
    13    26    27    1
    14    27    28    1
    15    28    29    1
    16    29    30    1
    17    23    24    1
    18    24    25    1
    19     4     5   ar
    20     5     6   ar
    21     9    10   ar
    22    10    11   ar
    23    11    12   ar
    24    12    13   ar
    25    13    14   ar
    26    14    15   ar
    27    15    16   ar
    28    16    17   ar
    29    17    18    2
    30    17     8   ar
    31     6     1   ar
    32    16    11   ar
    33    25    20    1
    34    30    26    1
@<TRIPOS>MOLECULE
*****
 30 34 0 0 0
SMALL
GASTEIGER

@<TRIPOS>ATOM
      1 C         142.6294  140.9267  164.6571 C.ar    1  UNL1        0.0344
      2 C         144.0472  140.9229  164.1675 C.ar    1  UNL1        0.0061
      3 C         144.3324  140.9615  162.6954 C.ar    1  UNL1        0.0370
      4 C         143.1998  141.0039  161.7129 C.ar    1  UNL1        0.1384
      5 C         141.7820  141.0077  162.2025 C.ar    1  UNL1        0.0370
      6 C         141.4968  140.9691  163.6746 C.ar    1  UNL1        0.0061
      7 C         143.5558  138.5965  166.3039 C.3     1  UNL1        0.1350
      8 N         142.8073  139.7230  166.9527 N.ar    1  UNL1       -0.2786
      9 C         142.3442  140.8881  166.1293 C.ar    1  UNL1        0.1460
     10 N         141.5958  142.0146  166.7780 N.ar    1  UNL1       -0.2280
     11 C         141.3105  141.9760  168.2502 C.ar    1  UNL1        0.0875
     12 C         140.5621  143.1025  168.8989 C.ar    1  UNL1        0.0193
     13 C         140.2769  143.0639  170.3710 C.ar    1  UNL1        0.0015
     14 C         140.7401  141.8988  171.1943 C.ar    1  UNL1        0.0003
     15 C         141.4885  140.7723  170.5456 C.ar    1  UNL1        0.0063
     16 C         141.7737  140.8109  169.0735 C.ar    1  UNL1        0.0739
     17 C         142.5221  139.6844  168.4248 C.ar    1  UNL1        0.2634
     18 O         142.9853  138.5193  169.2481 O.2     1  UNL1       -0.2669
     19 O         143.4850  141.0425  160.2407 O.3     1  UNL1       -0.4791
     20 C         143.3008  139.8082  159.4085 C.3     1  UNL1        0.1687
     21 C         143.1420  138.4726  160.0726 C.3     1  UNL1        0.0609
     22 C         142.9578  137.2384  159.2403 C.3     1  UNL1        0.0758
     23 N         142.9324  137.3397  157.7439 N.3     1  UNL1       -0.2737
     24 C         143.0912  138.6753  157.0798 C.3     1  UNL1        0.0758
     25 C         143.2754  139.9095  157.9122 C.3     1  UNL1        0.0609
     26 C         142.7482  136.1054  156.9117 C.3     1  UNL1        0.0575
     27 C         142.0788  136.0379  155.5710 C.3     1  UNL1        0.0160
     28 C         142.1179  134.6127  155.1047 C.3     1  UNL1        0.0014
     29 C         142.8115  133.7995  156.1572 C.3     1  UNL1        0.0014
     30 C         143.2010  134.7220  157.2740 C.3     1  UNL1        0.0160
@<TRIPOS>BOND
     1     7     8    1
     2     8     9   ar
     3     9     1    1
     4     1     2   ar
     5     2     3   ar
     6     3     4   ar
     7     4    19    1
     8    19    20    1
     9    20    21    1
    10    21    22    1
    11    22    23    1
    12    23    26    1
    13    26    27    1
    14    27    28    1
    15    28    29    1
    16    29    30    1
    17    23    24    1
    18    24    25    1
    19     4     5   ar
    20     5     6   ar
    21     9    10   ar
    22    10    11   ar
    23    11    12   ar
    24    12    13   ar
    25    13    14   ar
    26    14    15   ar
    27    15    16   ar
    28    16    17   ar
    29    17    18    2
    30    17     8   ar
    31     6     1   ar
    32    16    11   ar
    33    25    20    1
    34    30    26    1
@<TRIPOS>MOLECULE
*****
 30 34 0 0 0
SMALL
GASTEIGER

@<TRIPOS>ATOM
      1 C         140.5052  140.8758  164.0617 C.ar    1  UNL1        0.0344
      2 C         139.8903  142.0558  163.3694 C.ar    1  UNL1        0.0061
      3 C         139.7809  142.0744  161.8735 C.ar    1  UNL1        0.0370
      4 C         140.2864  140.9131  161.0700 C.ar    1  UNL1        0.1384
      5 C         140.9014  139.7331  161.7623 C.ar    1  UNL1        0.0370
      6 C         141.0108  139.7144  163.2582 C.ar    1  UNL1        0.0061
      7 C         138.3773  139.5446  165.7048 C.3     1  UNL1        0.1350
      8 N         139.5507  140.1915  166.3792 N.ar    1  UNL1       -0.2786
      9 C         140.6147  140.8571  165.5577 C.ar    1  UNL1        0.1460
     10 N         141.7880  141.5040  166.2320 N.ar    1  UNL1       -0.2280
     11 C         141.8974  141.4854  167.7279 C.ar    1  UNL1        0.0875
     12 C         143.0708  142.1323  168.4022 C.ar    1  UNL1        0.0193
     13 C         143.1802  142.1136  169.8981 C.ar    1  UNL1        0.0015
     14 C         142.1162  141.4480  170.7196 C.ar    1  UNL1        0.0003
     15 C         140.9429  140.8011  170.0453 C.ar    1  UNL1        0.0063
     16 C         140.8335  140.8198  168.5495 C.ar    1  UNL1        0.0739
     17 C         139.6601  140.1728  167.8751 C.ar    1  UNL1        0.2634
     18 O         138.5961  139.5072  168.6966 O.2     1  UNL1       -0.2669
     19 O         140.1770  140.9318  159.5741 O.3     1  UNL1       -0.4791
     20 C         140.6297  139.7464  158.7741 C.3     1  UNL1        0.1687
     21 C         139.6178  138.8176  158.1714 C.3     1  UNL1        0.0609
     22 C         140.0704  137.6323  157.3714 C.3     1  UNL1        0.0758
     23 N         141.5352  137.3757  157.1741 N.3     1  UNL1       -0.2737
     24 C         142.5471  138.3045  157.7768 C.3     1  UNL1        0.0758
     25 C         142.0943  139.4899  158.5768 C.3     1  UNL1        0.0609
     26 C         141.9879  136.1904  156.3741 C.3     1  UNL1        0.0575
     27 C         143.3290  135.5250  156.4659 C.3     1  UNL1        0.0160
     28 C         143.3490  134.3857  155.4905 C.3     1  UNL1        0.0014
     29 C         142.0201  134.3469  154.7957 C.3     1  UNL1        0.0014
     30 C         141.1789  135.4623  155.3419 C.3     1  UNL1        0.0160
@<TRIPOS>BOND
     1     7     8    1
     2     8     9   ar
     3     9     1    1
     4     1     2   ar
     5     2     3   ar
     6     3     4   ar
     7     4    19    1
     8    19    20    1
     9    20    21    1
    10    21    22    1
    11    22    23    1
    12    23    26    1
    13    26    27    1
    14    27    28    1
    15    28    29    1
    16    29    30    1
    17    23    24    1
    18    24    25    1
    19     4     5   ar
    20     5     6   ar
    21     9    10   ar
    22    10    11   ar
    23    11    12   ar
    24    12    13   ar
    25    13    14   ar
    26    14    15   ar
    27    15    16   ar
    28    16    17   ar
    29    17    18    2
    30    17     8   ar
    31     6     1   ar
    32    16    11   ar
    33    25    20    1
    34    30    26    1
