@<TRIPOS>MOLECULE
*****
 39 42 0 0 0
SMALL
GASTEIGER

@<TRIPOS>ATOM
      1 C         142.7695  132.9122  156.5246 C.ar    1  UNL1        0.0655
      2 C         143.1984  134.2649  157.0104 C.ar    1  UNL1        0.0337
      3 C         142.9750  135.4754  156.1531 C.ar    1  UNL1        0.0862
      4 C         142.3226  135.3330  154.8099 C.ar    1  UNL1        0.1534
      5 C         141.8937  133.9802  154.3241 C.ar    1  UNL1        0.0539
      6 C         142.1171  132.7698  155.1814 C.ar    1  UNL1        0.0647
      7 C         144.3669  131.1123  157.5036 C.2     1  UNL1        0.2497
      8 O         145.2812  131.4691  157.0217 O.2     1  UNL1       -0.2698
      9 N         142.9930  131.7018  157.3819 N.am    1  UNL1       -0.2794
     10 H         142.2379  131.2943  157.8647 H       1  UNL1        0.1552
     11 C         143.5756  128.7974  158.3786 C.2     1  UNL1        0.0048
     12 C         144.5904  129.9019  158.3610 C.2     1  UNL1        0.0580
     13 N         143.4040  136.8281  156.6390 N.pl3   1  UNL1       -0.2801
     14 H         144.2226  137.2425  156.2822 H       1  UNL1        0.1552
     15 C         142.5857  137.5495  157.6686 C.ar    1  UNL1        0.2207
     16 N         141.1281  137.8051  157.4236 N.ar    1  UNL1       -0.2120
     17 C         140.3098  138.5265  158.4531 C.ar    1  UNL1        0.1034
     18 C         140.9491  138.9922  159.7277 C.ar    1  UNL1        0.0400
     19 C         142.4068  138.7366  159.9726 C.ar    1  UNL1        0.0872
     20 N         143.2250  138.0152  158.9431 N.ar    1  UNL1       -0.2135
     21 C         143.0461  139.2024  161.2471 C.ar    1  UNL1        0.0364
     22 C         144.1391  140.2231  161.3635 C.ar    1  UNL1        0.0774
     23 N         144.4731  140.3807  162.8173 N.ar    1  UNL1       -0.3240
     24 C         145.5114  141.3002  163.3888 C.3     1  UNL1        0.1305
     25 C         143.5866  139.4574  163.5994 C.ar    1  UNL1        0.0600
     26 C         143.4685  139.1857  165.0699 C.ar    1  UNL1        0.0172
     27 C         142.4685  138.1858  165.5698 C.ar    1  UNL1        0.0015
     28 C         141.5865  137.4575  164.5993 C.ar    1  UNL1        0.0001
     29 C         141.7046  137.7292  163.1289 C.ar    1  UNL1        0.0015
     30 C         142.7046  138.7291  162.6290 C.ar    1  UNL1        0.0187
     31 O         142.0992  136.5434  153.9526 O.3     1  UNL1       -0.4701
     32 C         140.7128  136.8992  153.5040 C.3     1  UNL1        0.2525
     33 N         141.6882  131.4171  154.6955 N.pl3   1  UNL1       -0.3033
     34 C         140.7735  130.8810  154.9638 C.3     1  UNL1        0.1123
     35 C         142.5541  130.6553  153.7365 C.3     1  UNL1        0.1079
     36 C         144.0402  130.8593  153.7432 C.3     1  UNL1        0.0903
     37 N         144.9313  129.8603  154.4199 N.3     1  UNL1       -0.2949
     38 C         144.4246  128.4787  154.7101 C.3     1  UNL1        0.0859
     39 H         145.2044  130.2677  155.3142 H       1  UNL1        0.1233
@<TRIPOS>BOND
     1    11    12    2
     2    12     7    1
     3     7     8    2
     4     7     9   am
     5     9     1    1
     6     1     2   ar
     7     2     3   ar
     8     3    13    1
     9    13    15    1
    10    15    16   ar
    11    16    17   ar
    12    17    18   ar
    13    18    19   ar
    14    19    21    1
    15    21    22   ar
    16    22    23   ar
    17    23    24    1
    18    23    25   ar
    19    25    26   ar
    20    26    27   ar
    21    27    28   ar
    22    28    29   ar
    23    29    30   ar
    24    19    20   ar
    25     3     4   ar
    26     4    31    1
    27    31    32    1
    28     4     5   ar
    29     5     6   ar
    30     6    33    1
    31    33    34    1
    32    33    35    1
    33    35    36    1
    34    36    37    1
    35    37    38    1
    36     6     1   ar
    37    20    15   ar
    38    30    21   ar
    39    30    25   ar
    40     9    10    1
    41    13    14    1
    42    37    39    1
@<TRIPOS>MOLECULE
*****
 39 42 0 0 0
SMALL
GASTEIGER

@<TRIPOS>ATOM
      1 C         141.5750  137.9528  161.6353 C.ar    1  UNL1        0.0655
      2 C         142.5600  137.9197  160.5045 C.ar    1  UNL1        0.0337
      3 C         142.1184  138.2712  159.1146 C.ar    1  UNL1        0.0862
      4 C         140.6919  138.6557  158.8557 C.ar    1  UNL1        0.1534
      5 C         139.7069  138.6889  159.9866 C.ar    1  UNL1        0.0539
      6 C         140.1485  138.3374  161.3764 C.ar    1  UNL1        0.0647
      7 C         142.6074  138.6558  163.9134 C.2     1  UNL1        0.2497
      8 O         142.7683  139.7091  163.6676 O.2     1  UNL1       -0.2698
      9 N         142.0167  137.6014  163.0251 N.am    1  UNL1       -0.2794
     10 H         141.9188  136.6787  163.3542 H       1  UNL1        0.1552
     11 C         142.5143  139.0709  166.4765 C.2     1  UNL1        0.0048
     12 C         143.0491  138.3045  165.3032 C.2     1  UNL1        0.0580
     13 N         143.1034  138.2380  157.9839 N.pl3   1  UNL1       -0.2801
     14 H         143.8458  138.8841  157.9587 H       1  UNL1        0.1552
     15 C         142.9572  137.2206  156.8914 C.ar    1  UNL1        0.2207
     16 N         142.6529  137.6626  155.4907 N.ar    1  UNL1       -0.2120
     17 C         142.5067  136.6452  154.3983 C.ar    1  UNL1        0.1034
     18 C         142.6649  135.1857  154.7065 C.ar    1  UNL1        0.0400
     19 C         142.9693  134.7437  156.1073 C.ar    1  UNL1        0.0872
     20 N         143.1154  135.7611  157.1997 N.ar    1  UNL1       -0.2135
     21 C         143.1275  133.2843  156.4156 C.ar    1  UNL1        0.0364
     22 C         144.1471  132.6832  157.3371 C.ar    1  UNL1        0.0774
     23 N         143.9435  131.1971  157.3474 N.ar    1  UNL1       -0.3240
     24 C         144.7447  130.2030  158.1346 C.3     1  UNL1        0.1305
     25 C         142.7982  130.8797  156.4323 C.ar    1  UNL1        0.0600
     26 C         142.1493  129.5828  156.0490 C.ar    1  UNL1        0.0172
     27 C         140.9961  129.5758  155.0899 C.ar    1  UNL1        0.0015
     28 C         140.4918  130.8657  154.5140 C.ar    1  UNL1        0.0001
     29 C         141.1406  132.1627  154.8972 C.ar    1  UNL1        0.0015
     30 C         142.2938  132.1697  155.8564 C.ar    1  UNL1        0.0187
     31 O         140.2502  139.0072  157.4659 O.3     1  UNL1       -0.4701
     32 C         140.3494  140.4239  156.9832 C.3     1  UNL1        0.2525
     33 N         139.1635  138.3706  162.5071 N.pl3   1  UNL1       -0.3033
     34 C         138.5370  137.5460  162.8586 C.3     1  UNL1        0.1123
     35 C         138.9599  139.6352  163.2877 C.3     1  UNL1        0.1079
     36 C         139.1601  139.6394  164.7743 C.3     1  UNL1        0.0903
     37 N         137.9733  139.6823  165.6907 N.3     1  UNL1       -0.2949
     38 C         137.8274  138.6588  166.7774 C.3     1  UNL1        0.0859
     39 H         137.1438  139.6068  165.1019 H       1  UNL1        0.1233
@<TRIPOS>BOND
     1    11    12    2
     2    12     7    1
     3     7     8    2
     4     7     9   am
     5     9     1    1
     6     1     2   ar
     7     2     3   ar
     8     3    13    1
     9    13    15    1
    10    15    16   ar
    11    16    17   ar
    12    17    18   ar
    13    18    19   ar
    14    19    21    1
    15    21    22   ar
    16    22    23   ar
    17    23    24    1
    18    23    25   ar
    19    25    26   ar
    20    26    27   ar
    21    27    28   ar
    22    28    29   ar
    23    29    30   ar
    24    19    20   ar
    25     3     4   ar
    26     4    31    1
    27    31    32    1
    28     4     5   ar
    29     5     6   ar
    30     6    33    1
    31    33    34    1
    32    33    35    1
    33    35    36    1
    34    36    37    1
    35    37    38    1
    36     6     1   ar
    37    20    15   ar
    38    30    21   ar
    39    30    25   ar
    40     9    10    1
    41    13    14    1
    42    37    39    1
@<TRIPOS>MOLECULE
*****
 39 42 0 0 0
SMALL
GASTEIGER

@<TRIPOS>ATOM
      1 C         141.9497  140.9834  165.5021 C.ar    1  UNL1        0.0655
      2 C         141.9369  142.4148  165.0539 C.ar    1  UNL1        0.0337
      3 C         142.9758  142.9087  164.0912 C.ar    1  UNL1        0.0862
      4 C         144.0275  141.9711  163.5766 C.ar    1  UNL1        0.1534
      5 C         144.0403  140.5396  164.0248 C.ar    1  UNL1        0.0539
      6 C         143.0014  140.0458  164.9875 C.ar    1  UNL1        0.0647
      7 C         139.5598  140.0744  165.9624 C.2     1  UNL1        0.2497
      8 O         139.2114  140.0846  164.9260 O.2     1  UNL1       -0.2698
      9 N         140.9108  140.4895  166.4648 N.am    1  UNL1       -0.2794
     10 H         141.1156  140.4379  167.4264 H       1  UNL1        0.1552
     11 C         137.8376  138.2673  166.6828 C.2     1  UNL1        0.0048
     12 C         138.5209  139.5805  166.9251 C.2     1  UNL1        0.0580
     13 N         142.9629  144.3401  163.6431 N.pl3   1  UNL1       -0.2801
     14 H         143.5728  144.9916  164.0589 H       1  UNL1        0.1552
     15 C         142.0208  144.7791  162.5616 C.ar    1  UNL1        0.2207
     16 N         140.7450  145.4826  162.9183 N.ar    1  UNL1       -0.2120
     17 C         139.8029  145.9216  161.8368 C.ar    1  UNL1        0.1034
     18 C         140.1366  145.6570  160.3985 C.ar    1  UNL1        0.0400
     19 C         141.4125  144.9533  160.0418 C.ar    1  UNL1        0.0872
     20 N         142.3545  144.5144  161.1233 N.ar    1  UNL1       -0.2135
     21 C         141.7462  144.6887  158.6035 C.ar    1  UNL1        0.0364
     22 C         142.7687  143.7132  158.1007 C.ar    1  UNL1        0.0774
     23 N         142.7704  143.7748  156.6020 N.ar    1  UNL1       -0.3240
     24 C         143.6408  142.9650  155.6872 C.3     1  UNL1        0.1305
     25 C         141.7489  144.7883  156.1785 C.ar    1  UNL1        0.0600
     26 C         141.3133  145.2698  154.8263 C.ar    1  UNL1        0.0172
     27 C         140.2448  146.3161  154.7112 C.ar    1  UNL1        0.0015
     28 C         139.6117  146.8810  155.9482 C.ar    1  UNL1        0.0001
     29 C         140.0473  146.3995  157.3004 C.ar    1  UNL1        0.0015
     30 C         141.1158  145.3531  157.4155 C.ar    1  UNL1        0.0187
     31 O         145.0664  142.4649  162.6139 O.3     1  UNL1       -0.4701
     32 C         144.8555  142.3079  161.1371 C.3     1  UNL1        0.2525
     33 N         143.0143  138.6143  165.4356 N.pl3   1  UNL1       -0.3033
     34 C         143.6464  138.1732  166.2113 C.3     1  UNL1        0.1123
     35 C         142.0889  137.6206  164.7983 C.3     1  UNL1        0.1079
     36 C         141.4831  137.9124  163.4575 C.3     1  UNL1        0.0903
     37 N         142.0477  137.2722  162.2241 N.3     1  UNL1       -0.2949
     38 C         143.2134  137.9004  161.5195 C.3     1  UNL1        0.0859
     39 H         141.2877  137.2188  161.5459 H       1  UNL1        0.1233
@<TRIPOS>BOND
     1    11    12    2
     2    12     7    1
     3     7     8    2
     4     7     9   am
     5     9     1    1
     6     1     2   ar
     7     2     3   ar
     8     3    13    1
     9    13    15    1
    10    15    16   ar
    11    16    17   ar
    12    17    18   ar
    13    18    19   ar
    14    19    21    1
    15    21    22   ar
    16    22    23   ar
    17    23    24    1
    18    23    25   ar
    19    25    26   ar
    20    26    27   ar
    21    27    28   ar
    22    28    29   ar
    23    29    30   ar
    24    19    20   ar
    25     3     4   ar
    26     4    31    1
    27    31    32    1
    28     4     5   ar
    29     5     6   ar
    30     6    33    1
    31    33    34    1
    32    33    35    1
    33    35    36    1
    34    36    37    1
    35    37    38    1
    36     6     1   ar
    37    20    15   ar
    38    30    21   ar
    39    30    25   ar
    40     9    10    1
    41    13    14    1
    42    37    39    1
@<TRIPOS>MOLECULE
*****
 39 42 0 0 0
SMALL
GASTEIGER

@<TRIPOS>ATOM
      1 C         144.2295  142.8626  158.9097 C.ar    1  UNL1        0.0655
      2 C         144.8104  142.7686  160.2894 C.ar    1  UNL1        0.0337
      3 C         143.9547  143.0649  161.4853 C.ar    1  UNL1        0.0862
      4 C         142.5182  143.4553  161.3014 C.ar    1  UNL1        0.1534
      5 C         141.9372  143.5493  159.9216 C.ar    1  UNL1        0.0539
      6 C         142.7930  143.2530  158.7257 C.ar    1  UNL1        0.0647
      7 C         145.1296  141.1774  157.1491 C.2     1  UNL1        0.2497
      8 O         144.5887  140.3005  157.5152 O.2     1  UNL1       -0.2698
      9 N         145.0852  142.5663  157.7139 N.am    1  UNL1       -0.2794
     10 H         145.6178  143.2833  157.2998 H       1  UNL1        0.1552
     11 C         145.3988  140.9542  154.5746 C.2     1  UNL1        0.0048
     12 C         145.9853  140.8810  155.9533 C.2     1  UNL1        0.0580
     13 N         144.5357  142.9708  162.8650 N.pl3   1  UNL1       -0.2801
     14 H         145.0733  143.7131  163.2244 H       1  UNL1        0.1552
     15 C         144.2974  141.7458  163.6973 C.ar    1  UNL1        0.2207
     16 N         145.2033  140.5582  163.5601 N.ar    1  UNL1       -0.2120
     17 C         144.9651  139.3332  164.3924 C.ar    1  UNL1        0.1034
     18 C         143.8210  139.2958  165.3617 C.ar    1  UNL1        0.0400
     19 C         142.9151  140.4835  165.4988 C.ar    1  UNL1        0.0872
     20 N         143.1533  141.7085  164.6666 N.ar    1  UNL1       -0.2135
     21 C         141.7709  140.4462  166.4682 C.ar    1  UNL1        0.0364
     22 C         141.6794  141.2131  167.7540 C.ar    1  UNL1        0.0774
     23 N         140.3694  140.8762  168.4023 N.ar    1  UNL1       -0.3240
     24 C         139.8658  141.4191  169.7068 C.3     1  UNL1        0.1305
     25 C         139.6513  139.9011  167.5172 C.ar    1  UNL1        0.0600
     26 C         138.3206  139.2209  167.6452 C.ar    1  UNL1        0.0172
     27 C         137.8561  138.2749  166.5779 C.ar    1  UNL1        0.0015
     28 C         138.7223  138.0092  165.3824 C.ar    1  UNL1        0.0001
     29 C         140.0530  138.6894  165.2544 C.ar    1  UNL1        0.0015
     30 C         140.5175  139.6353  166.3218 C.ar    1  UNL1        0.0187
     31 O         141.6624  143.7516  162.4972 O.3     1  UNL1       -0.4701
     32 C         141.6291  145.1372  163.0708 C.3     1  UNL1        0.2525
     33 N         142.2120  143.3471  157.3461 N.pl3   1  UNL1       -0.3033
     34 C         141.6149  142.5899  156.8304 C.3     1  UNL1        0.1123
     35 C         142.4306  144.5817  156.5228 C.3     1  UNL1        0.1079
     36 C         142.1287  145.9322  157.1015 C.3     1  UNL1        0.0903
     37 N         140.7053  146.3619  157.3001 N.3     1  UNL1       -0.2949
     38 C         139.6371  145.8726  156.3677 C.3     1  UNL1        0.0859
     39 H         140.6956  147.3806  157.2504 H       1  UNL1        0.1233
@<TRIPOS>BOND
     1    11    12    2
     2    12     7    1
     3     7     8    2
     4     7     9   am
     5     9     1    1
     6     1     2   ar
     7     2     3   ar
     8     3    13    1
     9    13    15    1
    10    15    16   ar
    11    16    17   ar
    12    17    18   ar
    13    18    19   ar
    14    19    21    1
    15    21    22   ar
    16    22    23   ar
    17    23    24    1
    18    23    25   ar
    19    25    26   ar
    20    26    27   ar
    21    27    28   ar
    22    28    29   ar
    23    29    30   ar
    24    19    20   ar
    25     3     4   ar
    26     4    31    1
    27    31    32    1
    28     4     5   ar
    29     5     6   ar
    30     6    33    1
    31    33    34    1
    32    33    35    1
    33    35    36    1
    34    36    37    1
    35    37    38    1
    36     6     1   ar
    37    20    15   ar
    38    30    21   ar
    39    30    25   ar
    40     9    10    1
    41    13    14    1
    42    37    39    1
@<TRIPOS>MOLECULE
*****
 39 42 0 0 0
SMALL
GASTEIGER

@<TRIPOS>ATOM
      1 C         138.6746  140.1416  158.5368 C.ar    1  UNL1        0.0655
      2 C         137.9034  140.6305  159.7269 C.ar    1  UNL1        0.0337
      3 C         138.0160  139.9138  161.0398 C.ar    1  UNL1        0.0862
      4 C         138.8999  138.7082  161.1626 C.ar    1  UNL1        0.1534
      5 C         139.6712  138.2192  159.9725 C.ar    1  UNL1        0.0539
      6 C         139.5585  138.9360  158.6597 C.ar    1  UNL1        0.0647
      7 C         137.2791  140.8053  156.4483 C.2     1  UNL1        0.2497
      8 O         136.3610  140.2824  156.7297 O.2     1  UNL1       -0.2698
      9 N         138.5619  140.8584  157.2240 N.am    1  UNL1       -0.2794
     10 H         139.3298  141.3636  156.8714 H       1  UNL1        0.1552
     11 C         135.8395  142.0567  154.6843 C.2     1  UNL1        0.0048
     12 C         137.1663  141.5220  155.1354 C.2     1  UNL1        0.0580
     13 N         137.2447  140.4027  162.2297 N.pl3   1  UNL1       -0.2801
     14 H         136.3931  139.9737  162.4745 H       1  UNL1        0.1552
     15 C         137.7709  141.5454  163.0467 C.ar    1  UNL1        0.2207
     16 N         137.4037  142.9550  162.6887 N.ar    1  UNL1       -0.2120
     17 C         137.9299  144.0976  163.5057 C.ar    1  UNL1        0.1034
     18 C         138.8232  143.8307  164.6807 C.ar    1  UNL1        0.0400
     19 C         139.1904  142.4210  165.0387 C.ar    1  UNL1        0.0872
     20 N         138.6643  141.2784  164.2217 N.ar    1  UNL1       -0.2135
     21 C         140.0838  142.1540  166.2138 C.ar    1  UNL1        0.0364
     22 C         140.1996  143.0039  167.4444 C.ar    1  UNL1        0.0774
     23 N         141.2055  142.3654  168.3556 N.ar    1  UNL1       -0.3240
     24 C         141.6309  142.8808  169.6985 C.3     1  UNL1        0.1305
     25 C         141.7115  141.1210  167.6882 C.ar    1  UNL1        0.0600
     26 C         142.7140  140.0900  168.1148 C.ar    1  UNL1        0.0172
     27 C         143.0231  138.9283  167.2176 C.ar    1  UNL1        0.0015
     28 C         142.3298  138.7977  165.8939 C.ar    1  UNL1        0.0001
     29 C         141.3274  139.8287  165.4673 C.ar    1  UNL1        0.0015
     30 C         141.0182  140.9904  166.3644 C.ar    1  UNL1        0.0187
     31 O         139.0126  137.9914  162.4755 O.3     1  UNL1       -0.4701
     32 C         140.3456  137.4861  162.9421 C.3     1  UNL1        0.2525
     33 N         140.3298  138.4470  157.4697 N.pl3   1  UNL1       -0.3033
     34 C         141.3397  138.7435  157.1729 C.3     1  UNL1        0.1123
     35 C         139.7167  137.4425  156.5396 C.3     1  UNL1        0.1079
     36 C         139.0076  137.9028  155.3005 C.3     1  UNL1        0.0903
     37 N         137.5677  137.5432  155.0831 N.3     1  UNL1       -0.2949
     38 C         136.8633  137.9889  153.8361 C.3     1  UNL1        0.0859
     39 H         137.0458  137.9292  155.8700 H       1  UNL1        0.1233
@<TRIPOS>BOND
     1    11    12    2
     2    12     7    1
     3     7     8    2
     4     7     9   am
     5     9     1    1
     6     1     2   ar
     7     2     3   ar
     8     3    13    1
     9    13    15    1
    10    15    16   ar
    11    16    17   ar
    12    17    18   ar
    13    18    19   ar
    14    19    21    1
    15    21    22   ar
    16    22    23   ar
    17    23    24    1
    18    23    25   ar
    19    25    26   ar
    20    26    27   ar
    21    27    28   ar
    22    28    29   ar
    23    29    30   ar
    24    19    20   ar
    25     3     4   ar
    26     4    31    1
    27    31    32    1
    28     4     5   ar
    29     5     6   ar
    30     6    33    1
    31    33    34    1
    32    33    35    1
    33    35    36    1
    34    36    37    1
    35    37    38    1
    36     6     1   ar
    37    20    15   ar
    38    30    21   ar
    39    30    25   ar
    40     9    10    1
    41    13    14    1
    42    37    39    1
@<TRIPOS>MOLECULE
*****
 39 42 0 0 0
SMALL
GASTEIGER

@<TRIPOS>ATOM
      1 C         140.7188  141.8262  166.3652 C.ar    1  UNL1        0.0655
      2 C         140.3003  142.8773  165.3802 C.ar    1  UNL1        0.0337
      3 C         141.3385  143.6687  164.6414 C.ar    1  UNL1        0.0862
      4 C         142.7952  143.4090  164.8875 C.ar    1  UNL1        0.1534
      5 C         143.2137  142.3579  165.8726 C.ar    1  UNL1        0.0539
      6 C         142.1755  141.5666  166.6114 C.ar    1  UNL1        0.0647
      7 C         139.1240  139.7797  166.5000 C.2     1  UNL1        0.2497
      8 O         139.3907  139.3391  165.5355 O.2     1  UNL1       -0.2698
      9 N         139.6805  141.0349  167.1040 N.am    1  UNL1       -0.2794
     10 H         139.3644  141.3393  167.9853 H       1  UNL1        0.1552
     11 C         137.6532  137.6492  166.7193 C.2     1  UNL1        0.0048
     12 C         138.0858  138.9883  167.2388 C.2     1  UNL1        0.0580
     13 N         140.9200  144.7197  163.6564 N.pl3   1  UNL1       -0.2801
     14 H         140.7097  145.6298  163.9673 H       1  UNL1        0.1552
     15 C         140.8219  144.3841  162.1977 C.ar    1  UNL1        0.2207
     16 N         140.5467  145.4662  161.1960 N.ar    1  UNL1       -0.2120
     17 C         140.4486  145.1306  159.7374 C.ar    1  UNL1        0.1034
     18 C         140.6256  143.7129  159.2804 C.ar    1  UNL1        0.0400
     19 C         140.9008  142.6307  160.2822 C.ar    1  UNL1        0.0872
     20 N         140.9989  142.9664  161.7407 N.ar    1  UNL1       -0.2135
     21 C         141.0778  141.2130  159.8252 C.ar    1  UNL1        0.0364
     22 C         140.2975  140.5326  158.7397 C.ar    1  UNL1        0.0774
     23 N         140.8037  139.1259  158.6172 N.ar    1  UNL1       -0.3240
     24 C         140.3044  138.0900  157.6540 C.3     1  UNL1        0.1305
     25 C         141.8968  138.9370  159.6268 C.ar    1  UNL1        0.0600
     26 C         142.7598  137.7570  159.9628 C.ar    1  UNL1        0.0172
     27 C         143.7921  137.8670  161.0454 C.ar    1  UNL1        0.0015
     28 C         143.9616  139.1569  161.7920 C.ar    1  UNL1        0.0001
     29 C         143.0986  140.3368  161.4560 C.ar    1  UNL1        0.0015
     30 C         142.0662  140.2269  160.3734 C.ar    1  UNL1        0.0187
     31 O         143.8334  144.2004  164.1487 O.3     1  UNL1       -0.4701
     32 C         144.4048  143.6743  162.8655 C.3     1  UNL1        0.2525
     33 N         142.5940  140.5156  167.5963 N.pl3   1  UNL1       -0.3033
     34 C         142.6985  139.4431  167.4098 C.3     1  UNL1        0.1123
     35 C         142.9210  140.8993  169.0091 C.3     1  UNL1        0.1079
     36 C         142.1162  141.9571  169.7043 C.3     1  UNL1        0.0903
     37 N         140.6585  141.7322  169.9773 N.3     1  UNL1       -0.2949
     38 C         139.8240  142.8374  170.5535 C.3     1  UNL1        0.0859
     39 H         140.5982  140.9483  170.6272 H       1  UNL1        0.1233
@<TRIPOS>BOND
     1    11    12    2
     2    12     7    1
     3     7     8    2
     4     7     9   am
     5     9     1    1
     6     1     2   ar
     7     2     3   ar
     8     3    13    1
     9    13    15    1
    10    15    16   ar
    11    16    17   ar
    12    17    18   ar
    13    18    19   ar
    14    19    21    1
    15    21    22   ar
    16    22    23   ar
    17    23    24    1
    18    23    25   ar
    19    25    26   ar
    20    26    27   ar
    21    27    28   ar
    22    28    29   ar
    23    29    30   ar
    24    19    20   ar
    25     3     4   ar
    26     4    31    1
    27    31    32    1
    28     4     5   ar
    29     5     6   ar
    30     6    33    1
    31    33    34    1
    32    33    35    1
    33    35    36    1
    34    36    37    1
    35    37    38    1
    36     6     1   ar
    37    20    15   ar
    38    30    21   ar
    39    30    25   ar
    40     9    10    1
    41    13    14    1
    42    37    39    1
@<TRIPOS>MOLECULE
*****
 39 42 0 0 0
SMALL
GASTEIGER

@<TRIPOS>ATOM
      1 C         143.2851  141.3975  160.5329 C.ar    1  UNL1        0.0655
      2 C         142.8010  140.2720  161.3984 C.ar    1  UNL1        0.0337
      3 C         142.7305  138.8787  160.8472 C.ar    1  UNL1        0.0862
      4 C         143.1441  138.6109  159.4305 C.ar    1  UNL1        0.1534
      5 C         143.6282  139.7363  158.5649 C.ar    1  UNL1        0.0539
      6 C         143.6987  141.1296  159.1162 C.ar    1  UNL1        0.0647
      7 C         144.2584  143.0939  162.2430 C.2     1  UNL1        0.2497
      8 O         144.9105  142.3923  162.7704 O.2     1  UNL1       -0.2698
      9 N         143.3556  142.7907  161.0842 N.am    1  UNL1       -0.2794
     10 H         142.8093  143.5061  160.6854 H       1  UNL1        0.1552
     11 C         143.2558  144.9839  163.7172 C.2     1  UNL1        0.0048
     12 C         144.3289  144.4872  162.7943 C.2     1  UNL1        0.0580
     13 N         142.2464  137.7534  161.7128 N.pl3   1  UNL1       -0.2801
     14 H         142.7105  136.8853  161.6968 H       1  UNL1        0.1552
     15 C         141.0551  137.9506  162.6027 C.ar    1  UNL1        0.2207
     16 N         139.7101  137.4385  162.1798 N.ar    1  UNL1       -0.2120
     17 C         138.5188  137.6356  163.0697 C.ar    1  UNL1        0.1034
     18 C         138.6725  138.3449  164.3825 C.ar    1  UNL1        0.0400
     19 C         140.0176  138.8571  164.8053 C.ar    1  UNL1        0.0872
     20 N         141.2088  138.6599  163.9154 N.ar    1  UNL1       -0.2135
     21 C         140.1712  139.5663  166.1181 C.ar    1  UNL1        0.0364
     22 C         139.2659  139.4283  167.3061 C.ar    1  UNL1        0.0774
     23 N         139.7924  140.3149  168.3955 N.ar    1  UNL1       -0.3240
     24 C         139.1934  140.4855  169.7601 C.3     1  UNL1        0.1305
     25 C         141.0231  141.0008  167.8808 C.ar    1  UNL1        0.0600
     26 C         141.9608  141.9869  168.5120 C.ar    1  UNL1        0.0172
     27 C         143.1326  142.5103  167.7356 C.ar    1  UNL1        0.0015
     28 C         143.3667  142.0477  166.3280 C.ar    1  UNL1        0.0001
     29 C         142.4291  141.0616  165.6969 C.ar    1  UNL1        0.0015
     30 C         141.2572  140.5382  166.4733 C.ar    1  UNL1        0.0187
     31 O         143.0736  137.2176  158.8792 O.3     1  UNL1       -0.4701
     32 C         142.6418  136.9934  157.4603 C.3     1  UNL1        0.2525
     33 N         144.1828  142.2549  158.2506 N.pl3   1  UNL1       -0.3033
     34 C         145.2103  142.6169  158.1554 C.3     1  UNL1        0.1123
     35 C         143.2125  143.0136  157.3945 C.3     1  UNL1        0.1079
     36 C         142.6018  144.2867  157.9008 C.3     1  UNL1        0.0903
     37 N         142.4778  145.4727  156.9909 N.3     1  UNL1       -0.2949
     38 C         141.1388  146.1117  156.7699 C.3     1  UNL1        0.0859
     39 H         142.8183  145.1785  156.0756 H       1  UNL1        0.1233
@<TRIPOS>BOND
     1    11    12    2
     2    12     7    1
     3     7     8    2
     4     7     9   am
     5     9     1    1
     6     1     2   ar
     7     2     3   ar
     8     3    13    1
     9    13    15    1
    10    15    16   ar
    11    16    17   ar
    12    17    18   ar
    13    18    19   ar
    14    19    21    1
    15    21    22   ar
    16    22    23   ar
    17    23    24    1
    18    23    25   ar
    19    25    26   ar
    20    26    27   ar
    21    27    28   ar
    22    28    29   ar
    23    29    30   ar
    24    19    20   ar
    25     3     4   ar
    26     4    31    1
    27    31    32    1
    28     4     5   ar
    29     5     6   ar
    30     6    33    1
    31    33    34    1
    32    33    35    1
    33    35    36    1
    34    36    37    1
    35    37    38    1
    36     6     1   ar
    37    20    15   ar
    38    30    21   ar
    39    30    25   ar
    40     9    10    1
    41    13    14    1
    42    37    39    1
@<TRIPOS>MOLECULE
*****
 39 42 0 0 0
SMALL
GASTEIGER

@<TRIPOS>ATOM
      1 C         141.3664  140.5219  158.0071 C.ar    1  UNL1        0.0655
      2 C         140.6550  141.7388  158.5200 C.ar    1  UNL1        0.0337
      3 C         139.4235  141.5880  159.3630 C.ar    1  UNL1        0.0862
      4 C         138.9034  140.2204  159.6931 C.ar    1  UNL1        0.1534
      5 C         139.6148  139.0034  159.1802 C.ar    1  UNL1        0.0539
      6 C         140.8463  139.1542  158.3372 C.ar    1  UNL1        0.0647
      7 C         143.9346  140.8652  157.8168 C.2     1  UNL1        0.2497
      8 O         144.1426  140.9130  158.8893 O.2     1  UNL1       -0.2698
      9 N         142.5979  140.6727  157.1640 N.am    1  UNL1       -0.2794
     10 H         142.5289  140.6453  156.1824 H       1  UNL1        0.1552
     11 C         145.9846  142.2702  157.0592 C.2     1  UNL1        0.0048
     12 C         145.1662  141.0160  156.9739 C.2     1  UNL1        0.0580
     13 N         138.7121  142.8049  159.8759 N.pl3   1  UNL1       -0.2801
     14 H         137.8934  143.1210  159.4299 H       1  UNL1        0.1552
     15 C         139.2483  143.5403  161.0683 C.ar    1  UNL1        0.2207
     16 N         139.3884  145.0332  161.0280 N.ar    1  UNL1       -0.2120
     17 C         139.9246  145.7686  162.2204 C.ar    1  UNL1        0.1034
     18 C         140.3205  145.0111  163.4531 C.ar    1  UNL1        0.0400
     19 C         140.1803  143.5181  163.4933 C.ar    1  UNL1        0.0872
     20 N         139.6442  142.7828  162.3009 N.ar    1  UNL1       -0.2135
     21 C         140.5763  142.7606  164.7260 C.ar    1  UNL1        0.0364
     22 C         141.7855  143.0253  165.5731 C.ar    1  UNL1        0.0774
     23 N         141.7890  142.0336  166.6986 N.ar    1  UNL1       -0.3240
     24 C         142.8188  141.9366  167.7849 C.3     1  UNL1        0.1305
     25 C         140.5820  141.1561  166.5470 C.ar    1  UNL1        0.0600
     26 C         140.0685  140.0060  167.3616 C.ar    1  UNL1        0.0172
     27 C         138.8056  139.3052  166.9570 C.ar    1  UNL1        0.0015
     28 C         138.0560  139.7545  165.7379 C.ar    1  UNL1        0.0001
     29 C         138.5695  140.9046  164.9233 C.ar    1  UNL1        0.0015
     30 C         139.8324  141.6054  165.3278 C.ar    1  UNL1        0.0187
     31 O         137.6719  140.0696  160.5361 O.3     1  UNL1       -0.4701
     32 C         137.7130  139.2341  161.7812 C.3     1  UNL1        0.2525
     33 N         141.5577  137.9373  157.8243 N.pl3   1  UNL1       -0.3033
     34 C         141.3173  137.3651  156.9239 C.3     1  UNL1        0.1123
     35 C         142.7350  137.3857  158.5723 C.3     1  UNL1        0.1079
     36 C         143.0221  137.8526  159.9686 C.3     1  UNL1        0.0903
     37 N         142.3280  137.2090  161.1322 N.3     1  UNL1       -0.2949
     38 C         142.1642  137.9630  162.4185 C.3     1  UNL1        0.0859
     39 H         142.8486  136.3600  161.3527 H       1  UNL1        0.1233
@<TRIPOS>BOND
     1    11    12    2
     2    12     7    1
     3     7     8    2
     4     7     9   am
     5     9     1    1
     6     1     2   ar
     7     2     3   ar
     8     3    13    1
     9    13    15    1
    10    15    16   ar
    11    16    17   ar
    12    17    18   ar
    13    18    19   ar
    14    19    21    1
    15    21    22   ar
    16    22    23   ar
    17    23    24    1
    18    23    25   ar
    19    25    26   ar
    20    26    27   ar
    21    27    28   ar
    22    28    29   ar
    23    29    30   ar
    24    19    20   ar
    25     3     4   ar
    26     4    31    1
    27    31    32    1
    28     4     5   ar
    29     5     6   ar
    30     6    33    1
    31    33    34    1
    32    33    35    1
    33    35    36    1
    34    36    37    1
    35    37    38    1
    36     6     1   ar
    37    20    15   ar
    38    30    21   ar
    39    30    25   ar
    40     9    10    1
    41    13    14    1
    42    37    39    1
@<TRIPOS>MOLECULE
*****
 39 42 0 0 0
SMALL
GASTEIGER

@<TRIPOS>ATOM
      1 C         142.0187  142.9197  159.3755 C.ar    1  UNL1        0.0655
      2 C         142.4980  143.6280  160.6078 C.ar    1  UNL1        0.0337
      3 C         141.5247  144.3780  161.4683 C.ar    1  UNL1        0.0862
      4 C         140.0721  144.4196  161.0965 C.ar    1  UNL1        0.1534
      5 C         139.5928  143.7112  159.8641 C.ar    1  UNL1        0.0539
      6 C         140.5661  142.9613  159.0037 C.ar    1  UNL1        0.0647
      7 C         143.4999  142.7860  157.2453 C.2     1  UNL1        0.2497
      8 O         143.2393  143.7675  156.8399 O.2     1  UNL1       -0.2698
      9 N         142.9920  142.1699  158.5151 N.am    1  UNL1       -0.2794
     10 H         143.2974  141.2733  158.7837 H       1  UNL1        0.1552
     11 C         144.9448  140.6735  156.7980 C.2     1  UNL1        0.0048
     12 C         144.4733  142.0362  156.3848 C.2     1  UNL1        0.0580
     13 N         142.0041  145.0862  162.7006 N.pl3   1  UNL1       -0.2801
     14 H         141.9800  146.0695  162.7440 H       1  UNL1        0.1552
     15 C         142.5201  144.2965  163.8668 C.ar    1  UNL1        0.2207
     16 N         143.9821  144.3216  164.2015 N.ar    1  UNL1       -0.2120
     17 C         144.4981  143.5318  165.3677 C.ar    1  UNL1        0.1034
     18 C         143.5522  142.7170  166.1992 C.ar    1  UNL1        0.0400
     19 C         142.0901  142.6920  165.8644 C.ar    1  UNL1        0.0872
     20 N         141.5742  143.4817  164.6983 N.ar    1  UNL1       -0.2135
     21 C         141.1442  141.8772  166.6959 C.ar    1  UNL1        0.0364
     22 C         140.9335  142.0082  168.1752 C.ar    1  UNL1        0.0774
     23 N         139.9020  141.0003  168.5875 N.ar    1  UNL1       -0.3240
     24 C         139.3876  140.7842  169.9799 C.3     1  UNL1        0.1305
     25 C         139.4752  140.2463  167.3631 C.ar    1  UNL1        0.0600
     26 C         138.4866  139.1363  167.1616 C.ar    1  UNL1        0.0172
     27 C         138.2658  138.5683  165.7911 C.ar    1  UNL1        0.0015
     28 C         139.0335  139.1102  164.6219 C.ar    1  UNL1        0.0001
     29 C         140.0221  140.2202  164.8234 C.ar    1  UNL1        0.0015
     30 C         140.2429  140.7883  166.1939 C.ar    1  UNL1        0.0187
     31 O         139.0988  145.1695  161.9569 O.3     1  UNL1       -0.4701
     32 C         138.3006  144.4405  162.9968 C.3     1  UNL1        0.2525
     33 N         140.0868  142.2531  157.7714 N.pl3   1  UNL1       -0.3033
     34 C         139.8191  142.7073  156.8133 C.3     1  UNL1        0.1123
     35 C         139.9323  140.7611  157.7761 C.3     1  UNL1        0.1079
     36 C         139.4752  140.0583  159.0199 C.3     1  UNL1        0.0903
     37 N         138.0122  139.8258  159.2554 N.3     1  UNL1       -0.2949
     38 C         137.4806  139.7506  160.6560 C.3     1  UNL1        0.0859
     39 H         137.7781  138.9417  158.8038 H       1  UNL1        0.1233
@<TRIPOS>BOND
     1    11    12    2
     2    12     7    1
     3     7     8    2
     4     7     9   am
     5     9     1    1
     6     1     2   ar
     7     2     3   ar
     8     3    13    1
     9    13    15    1
    10    15    16   ar
    11    16    17   ar
    12    17    18   ar
    13    18    19   ar
    14    19    21    1
    15    21    22   ar
    16    22    23   ar
    17    23    24    1
    18    23    25   ar
    19    25    26   ar
    20    26    27   ar
    21    27    28   ar
    22    28    29   ar
    23    29    30   ar
    24    19    20   ar
    25     3     4   ar
    26     4    31    1
    27    31    32    1
    28     4     5   ar
    29     5     6   ar
    30     6    33    1
    31    33    34    1
    32    33    35    1
    33    35    36    1
    34    36    37    1
    35    37    38    1
    36     6     1   ar
    37    20    15   ar
    38    30    21   ar
    39    30    25   ar
    40     9    10    1
    41    13    14    1
    42    37    39    1
