@<TRIPOS>MOLECULE
*****
 31 34 0 0 0
SMALL
GASTEIGER

@<TRIPOS>ATOM
      1 C         141.5493  141.8796  166.1754 C.2     1  UNL1        0.0020
      2 C         141.0248  142.4641  167.4533 C.2     1  UNL1        0.0130
      3 C         141.2636  141.7577  168.7548 C.3     1  UNL1        0.1542
      4 C         140.5003  143.0486  168.7313 C.3     1  UNL1        0.0614
      5 C         139.9758  143.6332  170.0092 C.3     1  UNL1        0.0725
      6 N         140.2146  142.9267  171.3107 N.3     1  UNL1       -0.2972
      7 C         140.9780  141.6357  171.3342 C.3     1  UNL1        0.0725
      8 C         141.5025  141.0512  170.0563 C.3     1  UNL1        0.0614
      9 O         142.0270  140.4666  168.7783 O.3     1  UNL1       -0.4785
     10 C         142.5515  139.8821  167.5004 C.ar    1  UNL1        0.1386
     11 C         143.3149  138.5910  167.5238 C.ar    1  UNL1        0.0369
     12 C         143.8394  138.0065  166.2459 C.ar    1  UNL1        0.0031
     13 C         143.6006  138.7130  164.9444 C.ar    1  UNL1        0.0002
     14 C         142.8372  140.0040  164.9209 C.ar    1  UNL1        0.0030
     15 C         142.3127  140.5886  166.1989 C.ar    1  UNL1        0.0338
     16 H         139.2976  142.7339  171.7137 H       1  UNL1        0.1233
     17 C         140.8328  143.9990  162.2709 C.ar    1  UNL1        0.0536
     18 C         142.0419  144.3315  163.0939 C.ar    1  UNL1        0.0045
     19 C         142.2807  143.6250  164.3954 C.ar    1  UNL1        0.0001
     20 C         141.3105  142.5860  164.8739 C.ar    1  UNL1       -0.0001
     21 C         140.1012  142.2535  164.0509 C.ar    1  UNL1        0.0001
     22 C         139.8624  142.9599  162.7494 C.ar    1  UNL1        0.0045
     23 N         141.1796  144.1594  159.7011 N.am    1  UNL1       -0.2793
     24 C         140.5939  144.7055  160.9694 C.2     1  UNL1        0.2489
     25 O         139.7693  145.9581  160.9363 O.2     1  UNL1       -0.2699
     26 C         139.7295  144.5361  157.5786 C.3     1  UNL1        0.0215
     27 C         140.9408  144.8659  158.3996 C.3     1  UNL1        0.0757
     28 C         141.9131  145.9020  157.9193 C.3     1  UNL1        0.0215
     29 C         142.0042  142.9067  159.7342 C.3     1  UNL1        0.0757
     30 C         141.3437  141.5696  159.5741 C.3     1  UNL1        0.0215
     31 C         143.4893  142.9914  159.9274 C.3     1  UNL1        0.0215
@<TRIPOS>BOND
     1    26    27    1
     2    27    28    1
     3    27    23    1
     4    23    24   am
     5    24    25    2
     6    24    17    1
     7    17    18   ar
     8    18    19   ar
     9    19    20   ar
    10    20     1    1
    11     1     2    2
    12     2     3    1
    13     3     4    1
    14     4     5    1
    15     5     6    1
    16     6     7    1
    17     7     8    1
    18     3     9    1
    19     9    10    1
    20    10    11   ar
    21    11    12   ar
    22    12    13   ar
    23    13    14   ar
    24    14    15   ar
    25    20    21   ar
    26    21    22   ar
    27    23    29    1
    28    29    30    1
    29    29    31    1
    30    22    17   ar
    31    15     1    1
    32     8     3    1
    33    15    10   ar
    34     6    16    1
@<TRIPOS>MOLECULE
*****
 31 34 0 0 0
SMALL
GASTEIGER

@<TRIPOS>ATOM
      1 C         141.4163  141.0976  166.3129 C.2     1  UNL1        0.0020
      2 C         142.0199  141.6891  167.5522 C.2     1  UNL1        0.0130
      3 C         141.3930  141.4283  168.8898 C.3     1  UNL1        0.1542
      4 C         142.6234  142.2806  168.7915 C.3     1  UNL1        0.0614
      5 C         143.2270  142.8720  170.0308 C.3     1  UNL1        0.0725
      6 N         142.6001  142.6112  171.3683 N.3     1  UNL1       -0.2972
      7 C         141.3697  141.7589  171.4666 C.3     1  UNL1        0.0725
      8 C         140.7662  141.1675  170.2273 C.3     1  UNL1        0.0614
      9 O         140.1626  140.5760  168.9880 O.3     1  UNL1       -0.4785
     10 C         139.5591  139.9845  167.7487 C.ar    1  UNL1        0.1386
     11 C         138.3286  139.1322  167.8469 C.ar    1  UNL1        0.0369
     12 C         137.7251  138.5407  166.6076 C.ar    1  UNL1        0.0031
     13 C         138.3519  138.8015  165.2701 C.ar    1  UNL1        0.0002
     14 C         139.5823  139.6538  165.1718 C.ar    1  UNL1        0.0030
     15 C         140.1859  140.2453  166.4112 C.ar    1  UNL1        0.0338
     16 H         142.3608  143.5205  171.7637 H       1  UNL1        0.1233
     17 C         143.2969  141.8801  162.3003 C.ar    1  UNL1        0.0536
     18 C         142.2856  142.8393  162.8544 C.ar    1  UNL1        0.0045
     19 C         141.6587  142.5785  164.1920 C.ar    1  UNL1        0.0001
     20 C         142.0432  141.3584  164.9754 C.ar    1  UNL1       -0.0001
     21 C         143.0545  140.3992  164.4212 C.ar    1  UNL1        0.0001
     22 C         143.6814  140.6600  163.0836 C.ar    1  UNL1        0.0045
     23 N         143.2492  141.6609  159.7119 N.am    1  UNL1       -0.2793
     24 C         143.9237  142.1409  160.9627 C.2     1  UNL1        0.2489
     25 O         145.2252  142.8818  160.8760 O.2     1  UNL1       -0.2699
     26 C         144.6750  140.8472  157.6982 C.3     1  UNL1        0.0215
     27 C         143.8761  141.9217  158.3744 C.3     1  UNL1        0.0757
     28 C         143.7041  143.2570  157.7130 C.3     1  UNL1        0.0215
     29 C         141.9478  140.9200  159.7986 C.3     1  UNL1        0.0757
     30 C         141.9430  139.4318  159.9862 C.3     1  UNL1        0.0215
     31 C         140.6512  141.6674  159.6977 C.3     1  UNL1        0.0215
@<TRIPOS>BOND
     1    26    27    1
     2    27    28    1
     3    27    23    1
     4    23    24   am
     5    24    25    2
     6    24    17    1
     7    17    18   ar
     8    18    19   ar
     9    19    20   ar
    10    20     1    1
    11     1     2    2
    12     2     3    1
    13     3     4    1
    14     4     5    1
    15     5     6    1
    16     6     7    1
    17     7     8    1
    18     3     9    1
    19     9    10    1
    20    10    11   ar
    21    11    12   ar
    22    12    13   ar
    23    13    14   ar
    24    14    15   ar
    25    20    21   ar
    26    21    22   ar
    27    23    29    1
    28    29    30    1
    29    29    31    1
    30    22    17   ar
    31    15     1    1
    32     8     3    1
    33    15    10   ar
    34     6    16    1
@<TRIPOS>MOLECULE
*****
 31 34 0 0 0
SMALL
GASTEIGER

@<TRIPOS>ATOM
      1 C         139.8361  141.8076  165.5053 C.2     1  UNL1        0.0020
      2 C         140.1477  142.4012  166.8473 C.2     1  UNL1        0.0130
      3 C         140.0499  141.5556  168.0823 C.3     1  UNL1        0.1542
      4 C         140.4592  142.9947  168.1892 C.3     1  UNL1        0.0614
      5 C         140.7707  143.5881  169.5310 C.3     1  UNL1        0.0725
      6 N         140.6729  142.7425  170.7661 N.3     1  UNL1       -0.2972
      7 C         140.2636  141.3034  170.6593 C.3     1  UNL1        0.0725
      8 C         139.9521  140.7100  169.3174 C.3     1  UNL1        0.0614
      9 O         139.6406  140.1164  167.9755 O.3     1  UNL1       -0.4785
     10 C         139.3291  139.5229  166.6336 C.ar    1  UNL1        0.1386
     11 C         138.9197  138.0838  166.5267 C.ar    1  UNL1        0.0369
     12 C         138.6082  137.4903  165.1848 C.ar    1  UNL1        0.0031
     13 C         138.7060  138.3359  163.9497 C.ar    1  UNL1        0.0002
     14 C         139.1153  139.7750  164.0566 C.ar    1  UNL1        0.0030
     15 C         139.4269  140.3685  165.3985 C.ar    1  UNL1        0.0338
     16 H         139.9969  143.1961  171.3807 H       1  UNL1        0.1233
     17 C         140.1295  144.3445  161.8001 C.ar    1  UNL1        0.0536
     18 C         141.3677  144.0015  162.5743 C.ar    1  UNL1        0.0045
     19 C         141.2699  143.1559  163.8093 C.ar    1  UNL1        0.0001
     20 C         139.9339  142.6532  164.2703 C.ar    1  UNL1       -0.0001
     21 C         138.6957  142.9961  163.4961 C.ar    1  UNL1        0.0001
     22 C         138.7935  143.8418  162.2611 C.ar    1  UNL1        0.0045
     23 N         140.7908  144.6101  159.3017 N.am    1  UNL1       -0.2793
     24 C         140.2273  145.1901  160.5651 C.2     1  UNL1        0.2489
     25 O         139.7616  146.6157  160.5934 O.2     1  UNL1       -0.2699
     26 C         139.6718  145.6937  157.2223 C.3     1  UNL1        0.0215
     27 C         140.8886  145.4557  158.0667 C.3     1  UNL1        0.0757
     28 C         142.2031  146.0634  157.6759 C.3     1  UNL1        0.0215
     29 C         141.2565  143.1845  159.2734 C.3     1  UNL1        0.0757
     30 C         140.2667  142.0760  159.0698 C.3     1  UNL1        0.0215
     31 C         142.7121  142.8674  159.4487 C.3     1  UNL1        0.0215
@<TRIPOS>BOND
     1    26    27    1
     2    27    28    1
     3    27    23    1
     4    23    24   am
     5    24    25    2
     6    24    17    1
     7    17    18   ar
     8    18    19   ar
     9    19    20   ar
    10    20     1    1
    11     1     2    2
    12     2     3    1
    13     3     4    1
    14     4     5    1
    15     5     6    1
    16     6     7    1
    17     7     8    1
    18     3     9    1
    19     9    10    1
    20    10    11   ar
    21    11    12   ar
    22    12    13   ar
    23    13    14   ar
    24    14    15   ar
    25    20    21   ar
    26    21    22   ar
    27    23    29    1
    28    29    30    1
    29    29    31    1
    30    22    17   ar
    31    15     1    1
    32     8     3    1
    33    15    10   ar
    34     6    16    1
@<TRIPOS>MOLECULE
*****
 31 34 0 0 0
SMALL
GASTEIGER

@<TRIPOS>ATOM
      1 C         140.3759  142.3887  161.4005 C.2     1  UNL1        0.0020
      2 C         141.8515  142.1194  161.4211 C.2     1  UNL1        0.0130
      3 C         142.6793  142.5673  162.5890 C.3     1  UNL1        0.1542
      4 C         143.3269  141.8501  161.4418 C.3     1  UNL1        0.0614
      5 C         144.8024  141.5809  161.4624 C.3     1  UNL1        0.0725
      6 N         145.6302  142.0287  162.6304 N.3     1  UNL1       -0.2972
      7 C         144.9826  142.7459  163.7777 C.3     1  UNL1        0.0725
      8 C         143.5071  143.0151  163.7570 C.3     1  UNL1        0.0614
      9 O         142.0316  143.2844  163.7364 O.3     1  UNL1       -0.4785
     10 C         140.5561  143.5537  163.7157 C.ar    1  UNL1        0.1386
     11 C         139.9085  144.2709  164.8630 C.ar    1  UNL1        0.0369
     12 C         138.4330  144.5401  164.8423 C.ar    1  UNL1        0.0031
     13 C         137.6052  144.0923  163.6744 C.ar    1  UNL1        0.0002
     14 C         138.2528  143.3751  162.5271 C.ar    1  UNL1        0.0030
     15 C         139.7283  143.1058  162.5477 C.ar    1  UNL1        0.0338
     16 H         146.3479  142.6523  162.2608 H       1  UNL1        0.1233
     17 C         137.8924  141.0451  157.8966 C.ar    1  UNL1        0.0536
     18 C         138.3890  142.4588  157.9658 C.ar    1  UNL1        0.0045
     19 C         139.2169  142.9066  159.1337 C.ar    1  UNL1        0.0001
     20 C         139.5481  141.9408  160.2325 C.ar    1  UNL1       -0.0001
     21 C         139.0514  140.5271  160.1635 C.ar    1  UNL1        0.0001
     22 C         138.2236  140.0792  158.9955 C.ar    1  UNL1        0.0045
     23 N         137.7337  140.0976  155.4827 N.am    1  UNL1       -0.2793
     24 C         137.0645  140.5972  156.7287 C.2     1  UNL1        0.2489
     25 O         135.5674  140.6490  156.8068 O.2     1  UNL1       -0.2699
     26 C         136.5800  138.1959  154.1400 C.3     1  UNL1        0.0215
     27 C         136.9059  139.6497  154.3148 C.3     1  UNL1        0.0757
     28 C         136.4039  140.6555  153.3217 C.3     1  UNL1        0.0215
     29 C         139.2309  140.0458  155.4047 C.3     1  UNL1        0.0757
     30 C         139.9665  138.8375  155.9035 C.3     1  UNL1        0.0215
     31 C         139.9922  141.2022  154.8277 C.3     1  UNL1        0.0215
@<TRIPOS>BOND
     1    26    27    1
     2    27    28    1
     3    27    23    1
     4    23    24   am
     5    24    25    2
     6    24    17    1
     7    17    18   ar
     8    18    19   ar
     9    19    20   ar
    10    20     1    1
    11     1     2    2
    12     2     3    1
    13     3     4    1
    14     4     5    1
    15     5     6    1
    16     6     7    1
    17     7     8    1
    18     3     9    1
    19     9    10    1
    20    10    11   ar
    21    11    12   ar
    22    12    13   ar
    23    13    14   ar
    24    14    15   ar
    25    20    21   ar
    26    21    22   ar
    27    23    29    1
    28    29    30    1
    29    29    31    1
    30    22    17   ar
    31    15     1    1
    32     8     3    1
    33    15    10   ar
    34     6    16    1
@<TRIPOS>MOLECULE
*****
 31 34 0 0 0
SMALL
GASTEIGER

@<TRIPOS>ATOM
      1 C         140.1182  140.3722  162.5701 C.2     1  UNL1        0.0020
      2 C         140.0969  141.8680  162.6814 C.2     1  UNL1        0.0130
      3 C         139.4977  142.5216  163.8912 C.3     1  UNL1        0.1542
      4 C         140.0755  143.3636  162.7926 C.3     1  UNL1        0.0614
      5 C         140.0542  144.8593  162.9039 C.3     1  UNL1        0.0725
      6 N         139.4550  145.5129  164.1138 N.3     1  UNL1       -0.2972
      7 C         138.8772  144.6709  165.2124 C.3     1  UNL1        0.0725
      8 C         138.8985  143.1752  165.1011 C.3     1  UNL1        0.0614
      9 O         138.9199  141.6794  164.9899 O.3     1  UNL1       -0.4785
     10 C         138.9412  140.1837  164.8786 C.ar    1  UNL1        0.1386
     11 C         138.3634  139.3416  165.9773 C.ar    1  UNL1        0.0369
     12 C         138.3847  137.8459  165.8660 C.ar    1  UNL1        0.0031
     13 C         138.9839  137.1923  164.6561 C.ar    1  UNL1        0.0002
     14 C         139.5617  138.0343  163.5575 C.ar    1  UNL1        0.0030
     15 C         139.5404  139.5301  163.6687 C.ar    1  UNL1        0.0338
     16 H         138.7043  146.1176  163.7804 H       1  UNL1        0.1233
     17 C         141.9157  138.4114  158.9405 C.ar    1  UNL1        0.0536
     18 C         142.8016  138.8751  160.0585 C.ar    1  UNL1        0.0045
     19 C         142.2024  139.5287  161.2684 C.ar    1  UNL1        0.0001
     20 C         140.7174  139.7186  161.3603 C.ar    1  UNL1       -0.0001
     21 C         139.8314  139.2548  160.2422 C.ar    1  UNL1        0.0001
     22 C         140.4305  138.6012  159.0323 C.ar    1  UNL1        0.0045
     23 N         142.7774  138.5656  156.4944 N.am    1  UNL1       -0.2793
     24 C         142.5149  137.7577  157.7306 C.2     1  UNL1        0.2489
     25 O         142.8515  136.2962  157.7571 O.2     1  UNL1       -0.2699
     26 C         144.8417  138.0612  154.9997 C.3     1  UNL1        0.0215
     27 C         143.3766  137.9120  155.2845 C.3     1  UNL1        0.0757
     28 C         142.5106  137.1093  154.3595 C.3     1  UNL1        0.0215
     29 C         142.4408  140.0272  156.4679 C.3     1  UNL1        0.0757
     30 C         141.1230  140.4834  155.9155 C.3     1  UNL1        0.0215
     31 C         143.4220  141.0324  156.9940 C.3     1  UNL1        0.0215
@<TRIPOS>BOND
     1    26    27    1
     2    27    28    1
     3    27    23    1
     4    23    24   am
     5    24    25    2
     6    24    17    1
     7    17    18   ar
     8    18    19   ar
     9    19    20   ar
    10    20     1    1
    11     1     2    2
    12     2     3    1
    13     3     4    1
    14     4     5    1
    15     5     6    1
    16     6     7    1
    17     7     8    1
    18     3     9    1
    19     9    10    1
    20    10    11   ar
    21    11    12   ar
    22    12    13   ar
    23    13    14   ar
    24    14    15   ar
    25    20    21   ar
    26    21    22   ar
    27    23    29    1
    28    29    30    1
    29    29    31    1
    30    22    17   ar
    31    15     1    1
    32     8     3    1
    33    15    10   ar
    34     6    16    1
@<TRIPOS>MOLECULE
*****
 31 34 0 0 0
SMALL
GASTEIGER

@<TRIPOS>ATOM
      1 C         140.4655  141.3791  163.8332 C.2     1  UNL1        0.0020
      2 C         139.7026  140.7006  164.9322 C.2     1  UNL1        0.0130
      3 C         140.2269  140.7290  166.3373 C.3     1  UNL1        0.1542
      4 C         138.9399  140.0220  166.0311 C.3     1  UNL1        0.0614
      5 C         138.1771  139.3435  167.1301 C.3     1  UNL1        0.0725
      6 N         138.7013  139.3719  168.5352 N.3     1  UNL1       -0.2972
      7 C         139.9883  140.0789  168.8414 C.3     1  UNL1        0.0725
      8 C         140.7511  140.7574  167.7424 C.3     1  UNL1        0.0614
      9 O         141.5139  141.4360  166.6434 O.3     1  UNL1       -0.4785
     10 C         142.2767  142.1146  165.5445 C.ar    1  UNL1        0.1386
     11 C         143.5638  142.8216  165.8506 C.ar    1  UNL1        0.0369
     12 C         144.3265  143.5001  164.7517 C.ar    1  UNL1        0.0031
     13 C         143.8023  143.4717  163.3466 C.ar    1  UNL1        0.0002
     14 C         142.5153  142.7647  163.0404 C.ar    1  UNL1        0.0030
     15 C         141.7525  142.0861  164.1394 C.ar    1  UNL1        0.0338
     16 H         138.8227  138.4012  168.8239 H       1  UNL1        0.1233
     17 C         138.8928  141.2938  159.6178 C.ar    1  UNL1        0.0536
     18 C         139.8881  140.2659  160.0679 C.ar    1  UNL1        0.0045
     19 C         140.4124  140.2944  161.4730 C.ar    1  UNL1        0.0001
     20 C         139.9412  141.3507  162.4281 C.ar    1  UNL1       -0.0001
     21 C         138.9458  142.3787  161.9780 C.ar    1  UNL1        0.0001
     22 C         138.4216  142.3502  160.5729 C.ar    1  UNL1        0.0045
     23 N         139.0247  142.0967  157.1504 N.am    1  UNL1       -0.2793
     24 C         138.3686  141.2654  158.2127 C.2     1  UNL1        0.2489
     25 O         137.1881  140.4056  157.8699 O.2     1  UNL1       -0.2699
     26 C         137.4037  143.0057  155.3349 C.3     1  UNL1        0.0215
     27 C         138.5004  142.0682  155.7453 C.3     1  UNL1        0.0757
     28 C         139.0729  141.1024  154.7506 C.3     1  UNL1        0.0215
     29 C         140.2051  142.9565  157.4933 C.3     1  UNL1        0.0757
     30 C         141.5905  142.3841  157.4399 C.3     1  UNL1        0.0215
     31 C         140.0000  144.3886  157.8895 C.3     1  UNL1        0.0215
@<TRIPOS>BOND
     1    26    27    1
     2    27    28    1
     3    27    23    1
     4    23    24   am
     5    24    25    2
     6    24    17    1
     7    17    18   ar
     8    18    19   ar
     9    19    20   ar
    10    20     1    1
    11     1     2    2
    12     2     3    1
    13     3     4    1
    14     4     5    1
    15     5     6    1
    16     6     7    1
    17     7     8    1
    18     3     9    1
    19     9    10    1
    20    10    11   ar
    21    11    12   ar
    22    12    13   ar
    23    13    14   ar
    24    14    15   ar
    25    20    21   ar
    26    21    22   ar
    27    23    29    1
    28    29    30    1
    29    29    31    1
    30    22    17   ar
    31    15     1    1
    32     8     3    1
    33    15    10   ar
    34     6    16    1
@<TRIPOS>MOLECULE
*****
 31 34 0 0 0
SMALL
GASTEIGER

@<TRIPOS>ATOM
      1 C         141.1370  141.0036  164.4711 C.2     1  UNL1        0.0020
      2 C         141.6296  140.4824  165.7886 C.2     1  UNL1        0.0130
      3 C         141.3039  141.2174  167.0550 C.3     1  UNL1        0.1542
      4 C         142.1222  139.9614  167.1061 C.3     1  UNL1        0.0614
      5 C         142.6148  139.4403  168.4236 C.3     1  UNL1        0.0725
      6 N         142.2891  140.1752  169.6899 N.3     1  UNL1       -0.2972
      7 C         141.4707  141.4313  169.6389 C.3     1  UNL1        0.0725
      8 C         140.9781  141.9524  168.3214 C.3     1  UNL1        0.0614
      9 O         140.4855  142.4735  167.0039 O.3     1  UNL1       -0.4785
     10 C         139.9929  142.9946  165.6864 C.ar    1  UNL1        0.1386
     11 C         139.1745  144.2507  165.6352 C.ar    1  UNL1        0.0369
     12 C         138.6819  144.7718  164.3178 C.ar    1  UNL1        0.0031
     13 C         139.0077  144.0368  163.0514 C.ar    1  UNL1        0.0002
     14 C         139.8260  142.7808  163.1025 C.ar    1  UNL1        0.0030
     15 C         140.3186  142.2596  164.4200 C.ar    1  UNL1        0.0338
     16 H         143.1784  140.4207  170.1250 H       1  UNL1        0.1233
     17 C         142.1142  138.7987  160.6719 C.ar    1  UNL1        0.0536
     18 C         140.8777  138.4485  161.4455 C.ar    1  UNL1        0.0045
     19 C         140.5520  139.1834  162.7119 C.ar    1  UNL1        0.0001
     20 C         141.4627  140.2686  163.2047 C.ar    1  UNL1       -0.0001
     21 C         142.6992  140.6189  162.4311 C.ar    1  UNL1        0.0001
     22 C         143.0250  139.8839  161.1647 C.ar    1  UNL1        0.0045
     23 N         141.8855  138.5426  158.0967 N.am    1  UNL1       -0.2793
     24 C         142.4399  138.0637  159.4056 C.2     1  UNL1        0.2489
     25 O         143.3201  136.8498  159.4481 O.2     1  UNL1       -0.2699
     26 C         141.3650  136.6469  156.3979 C.3     1  UNL1        0.0215
     27 C         142.2112  137.8076  156.8303 C.3     1  UNL1        0.0757
     28 C         143.3830  138.2333  155.9963 C.3     1  UNL1        0.0215
     29 C         141.0052  139.7565  158.0541 C.3     1  UNL1        0.0757
     30 C         139.5166  139.6077  158.1627 C.3     1  UNL1        0.0215
     31 C         141.6137  141.1192  157.9030 C.3     1  UNL1        0.0215
@<TRIPOS>BOND
     1    26    27    1
     2    27    28    1
     3    27    23    1
     4    23    24   am
     5    24    25    2
     6    24    17    1
     7    17    18   ar
     8    18    19   ar
     9    19    20   ar
    10    20     1    1
    11     1     2    2
    12     2     3    1
    13     3     4    1
    14     4     5    1
    15     5     6    1
    16     6     7    1
    17     7     8    1
    18     3     9    1
    19     9    10    1
    20    10    11   ar
    21    11    12   ar
    22    12    13   ar
    23    13    14   ar
    24    14    15   ar
    25    20    21   ar
    26    21    22   ar
    27    23    29    1
    28    29    30    1
    29    29    31    1
    30    22    17   ar
    31    15     1    1
    32     8     3    1
    33    15    10   ar
    34     6    16    1
@<TRIPOS>MOLECULE
*****
 31 34 0 0 0
SMALL
GASTEIGER

@<TRIPOS>ATOM
      1 C         142.1673  141.4493  163.4401 C.2     1  UNL1        0.0020
      2 C         142.6973  140.4485  164.4238 C.2     1  UNL1        0.0130
      3 C         142.2699  140.5101  165.8603 C.3     1  UNL1        0.1542
      4 C         143.2272  139.4478  165.4075 C.3     1  UNL1        0.0614
      5 C         143.7570  138.4471  166.3912 C.3     1  UNL1        0.0725
      6 N         143.3297  138.5087  167.8277 N.3     1  UNL1       -0.2972
      7 C         142.3724  139.5710  168.2805 C.3     1  UNL1        0.0725
      8 C         141.8425  140.5717  167.2968 C.3     1  UNL1        0.0614
      9 O         141.3125  141.5725  166.3131 O.3     1  UNL1       -0.4785
     10 C         140.7827  142.5732  165.3293 C.ar    1  UNL1        0.1386
     11 C         139.8253  143.6356  165.7821 C.ar    1  UNL1        0.0369
     12 C         139.2954  144.6363  164.7984 C.ar    1  UNL1        0.0031
     13 C         139.7228  144.5747  163.3619 C.ar    1  UNL1        0.0002
     14 C         140.6801  143.5124  162.9091 C.ar    1  UNL1        0.0030
     15 C         141.2101  142.5116  163.8928 C.ar    1  UNL1        0.0338
     16 H         144.1780  138.6209  168.3828 H       1  UNL1        0.1233
     17 C         143.4495  141.2646  159.1306 C.ar    1  UNL1        0.0536
     18 C         144.1772  142.1568  160.0919 C.ar    1  UNL1        0.0045
     19 C         143.7498  142.2184  161.5284 C.ar    1  UNL1        0.0001
     20 C         142.5947  141.3877  162.0036 C.ar    1  UNL1       -0.0001
     21 C         141.8670  140.4954  161.0421 C.ar    1  UNL1        0.0001
     22 C         142.2944  140.4338  159.6056 C.ar    1  UNL1        0.0045
     23 N         143.2169  142.0857  156.6767 N.am    1  UNL1       -0.2793
     24 C         143.8769  141.2030  157.6940 C.2     1  UNL1        0.2489
     25 O         144.9644  140.2586  157.2750 O.2     1  UNL1       -0.2699
     26 C         143.0330  141.0105  154.3186 C.3     1  UNL1        0.0215
     27 C         143.6443  142.0241  155.2402 C.3     1  UNL1        0.0757
     28 C         144.6828  142.9760  154.7252 C.3     1  UNL1        0.0215
     29 C         142.1294  143.0300  157.0958 C.3     1  UNL1        0.0757
     30 C         140.6936  142.6033  157.0161 C.3     1  UNL1        0.0215
     31 C         142.4777  144.4011  157.5945 C.3     1  UNL1        0.0215
@<TRIPOS>BOND
     1    26    27    1
     2    27    28    1
     3    27    23    1
     4    23    24   am
     5    24    25    2
     6    24    17    1
     7    17    18   ar
     8    18    19   ar
     9    19    20   ar
    10    20     1    1
    11     1     2    2
    12     2     3    1
    13     3     4    1
    14     4     5    1
    15     5     6    1
    16     6     7    1
    17     7     8    1
    18     3     9    1
    19     9    10    1
    20    10    11   ar
    21    11    12   ar
    22    12    13   ar
    23    13    14   ar
    24    14    15   ar
    25    20    21   ar
    26    21    22   ar
    27    23    29    1
    28    29    30    1
    29    29    31    1
    30    22    17   ar
    31    15     1    1
    32     8     3    1
    33    15    10   ar
    34     6    16    1
@<TRIPOS>MOLECULE
*****
 31 34 0 0 0
SMALL
GASTEIGER

@<TRIPOS>ATOM
      1 C         141.1591  140.6336  164.2106 C.2     1  UNL1        0.0020
      2 C         140.2064  140.1249  165.2516 C.2     1  UNL1        0.0130
      3 C         140.3803  140.5247  166.6869 C.3     1  UNL1        0.1542
      4 C         139.2538  139.6162  166.2926 C.3     1  UNL1        0.0614
      5 C         138.3012  139.1075  167.3336 C.3     1  UNL1        0.0725
      6 N         138.4751  139.5073  168.7688 N.3     1  UNL1       -0.2972
      7 C         139.6016  140.4159  169.1631 C.3     1  UNL1        0.0725
      8 C         140.5542  140.9246  168.1221 C.3     1  UNL1        0.0614
      9 O         141.5069  141.4333  167.0811 O.3     1  UNL1       -0.4785
     10 C         142.4596  141.9420  166.0401 C.ar    1  UNL1        0.1386
     11 C         143.5862  142.8506  166.4343 C.ar    1  UNL1        0.0369
     12 C         144.5388  143.3592  165.3933 C.ar    1  UNL1        0.0031
     13 C         144.3649  142.9594  163.9581 C.ar    1  UNL1        0.0002
     14 C         143.2384  142.0509  163.5639 C.ar    1  UNL1        0.0030
     15 C         142.2857  141.5421  164.6049 C.ar    1  UNL1        0.0338
     16 H         138.5910  138.6459  169.3025 H       1  UNL1        0.1233
     17 C         140.6375  139.4341  159.9049 C.ar    1  UNL1        0.0536
     18 C         141.5496  138.6462  160.7977 C.ar    1  UNL1        0.0045
     19 C         141.7235  139.0461  162.2330 C.ar    1  UNL1        0.0001
     20 C         140.9853  140.2337  162.7754 C.ar    1  UNL1       -0.0001
     21 C         140.0730  141.0217  161.8826 C.ar    1  UNL1        0.0001
     22 C         139.8991  140.6218  160.4473 C.ar    1  UNL1        0.0045
     23 N         141.3174  139.6612  157.4077 N.am    1  UNL1       -0.2793
     24 C         140.4636  139.0342  158.4697 C.2     1  UNL1        0.2489
     25 O         139.4358  138.0073  158.0965 O.2     1  UNL1       -0.2699
     26 C         140.1061  139.9376  155.1260 C.3     1  UNL1        0.0215
     27 C         141.1435  139.2614  155.9725 C.3     1  UNL1        0.0757
     28 C         142.0069  138.1854  155.3838 C.3     1  UNL1        0.0215
     29 C         142.3451  140.6881  157.7810 C.3     1  UNL1        0.0757
     30 C         141.9931  142.1459  157.7536 C.3     1  UNL1        0.0215
     31 C         143.7249  140.2571  158.1815 C.3     1  UNL1        0.0215
@<TRIPOS>BOND
     1    26    27    1
     2    27    28    1
     3    27    23    1
     4    23    24   am
     5    24    25    2
     6    24    17    1
     7    17    18   ar
     8    18    19   ar
     9    19    20   ar
    10    20     1    1
    11     1     2    2
    12     2     3    1
    13     3     4    1
    14     4     5    1
    15     5     6    1
    16     6     7    1
    17     7     8    1
    18     3     9    1
    19     9    10    1
    20    10    11   ar
    21    11    12   ar
    22    12    13   ar
    23    13    14   ar
    24    14    15   ar
    25    20    21   ar
    26    21    22   ar
    27    23    29    1
    28    29    30    1
    29    29    31    1
    30    22    17   ar
    31    15     1    1
    32     8     3    1
    33    15    10   ar
    34     6    16    1
