@<TRIPOS>MOLECULE
*****
 60 62 0 0 0
SMALL
GASTEIGER

@<TRIPOS>ATOM
      1 C         142.9826  139.8000  161.5262 C.3     1  UNL1        0.1486
      2 N         142.0249  140.9756  159.4165 N.am    1  UNL1       -0.2970
      3 C         143.0289  140.0583  160.0493 C.2     1  UNL1        0.2406
      4 O         144.0793  139.3993  159.2053 O.2     1  UNL1       -0.2733
      5 H         141.3355  141.4081  159.9705 H       1  UNL1        0.1499
      6 C         142.0712  141.2339  157.9396 C.3     1  UNL1        0.1488
      7 C         137.1800  140.9527  155.6491 C.3     1  UNL1        0.0765
      8 C         137.9441  139.7643  155.1455 C.3     1  UNL1        0.0412
      9 C         139.3580  139.5375  155.5922 C.3     1  UNL1        0.0951
     10 N         140.0077  140.4991  156.5425 N.am    1  UNL1       -0.2781
     11 C         141.4216  140.2723  156.9893 C.2     1  UNL1        0.2435
     12 O         142.1857  139.0839  156.4857 O.2     1  UNL1       -0.2731
     13 C         139.2435  141.6875  157.0461 C.3     1  UNL1        0.0951
     14 C         137.8297  141.9143  156.5994 C.3     1  UNL1        0.0412
     15 C         132.0729  140.3586  156.4009 C.3     1  UNL1        0.1122
     16 N         133.2126  140.8825  155.5782 N.am    1  UNL1       -0.2872
     17 C         134.6265  140.6557  156.0250 C.2     1  UNL1        0.3008
     18 O         134.9007  139.9050  157.2944 O.2     1  UNL1       -0.2528
     19 N         135.7661  141.1795  155.2023 N.am    1  UNL1       -0.2905
     20 H         133.0326  141.3752  154.7451 H       1  UNL1        0.1510
     21 H         135.5862  141.6722  154.3692 H       1  UNL1        0.1509
     22 C         142.7673  142.4539  157.4131 C.3     1  UNL1        0.0290
     23 C         144.0133  142.9539  158.0822 C.3     1  UNL1        0.0036
     24 C         145.3425  142.3485  157.7408 C.3     1  UNL1        0.0169
     25 C         145.4754  141.4592  156.5402 C.3     1  UNL1        0.0651
     26 N         145.3119  139.9751  156.6842 N.3     1  UNL1       -0.3211
     27 H         146.0700  139.6035  157.2566 H       1  UNL1        0.1189
     28 H         145.3369  139.5392  155.7624 H       1  UNL1        0.1189
     29 N         141.7138  140.0388  162.2899 N.am    1  UNL1       -0.2970
     30 C         140.6859  138.9514  162.3952 C.2     1  UNL1        0.2410
     31 O         140.9267  137.6254  161.7368 O.2     1  UNL1       -0.2733
     32 H         141.5557  140.9091  162.7220 H       1  UNL1        0.1499
     33 C         139.4171  139.1902  163.1588 C.3     1  UNL1        0.1530
     34 N         138.4794  140.2808  162.7330 N.am    1  UNL1       -0.2969
     35 C         138.7731  141.7064  163.0955 C.2     1  UNL1        0.2389
     36 O         140.0045  142.0414  163.8837 O.2     1  UNL1       -0.2736
     37 H         137.6711  140.0609  162.2157 H       1  UNL1        0.1499
     38 C         137.8354  142.7969  162.6697 C.3     1  UNL1        0.1549
     39 N         137.9239  143.3634  161.2835 N.3     1  UNL1       -0.2895
     40 H         137.8581  144.3772  161.3750 H       1  UNL1        0.1237
     41 C         139.1277  143.0825  160.4339 C.3     1  UNL1        0.0733
     42 C         140.2004  144.1206  160.2867 C.3     1  UNL1        0.0381
     43 C         140.3018  144.9201  159.0215 C.3     1  UNL1        0.0061
     44 C         141.1718  144.3591  161.4045 C.ar    1  UNL1       -0.0212
     45 C         142.5425  143.7521  161.3494 C.ar    1  UNL1       -0.0042
     46 C         143.5138  143.9906  162.4672 C.ar    1  UNL1       -0.0003
     47 C         143.1146  144.8362  163.6401 C.ar    1  UNL1       -0.0000
     48 C         141.7440  145.4432  163.6952 C.ar    1  UNL1       -0.0003
     49 C         140.7726  145.2046  162.5774 C.ar    1  UNL1       -0.0042
     50 C         139.0860  138.3384  164.3482 C.3     1  UNL1        0.0553
     51 C         139.2502  138.8887  165.7339 C.ar    1  UNL1       -0.0200
     52 C         138.1071  138.8327  166.7035 C.ar    1  UNL1       -0.0042
     53 C         138.2714  139.3830  168.0892 C.ar    1  UNL1       -0.0003
     54 C         139.5787  139.9894  168.5053 C.ar    1  UNL1       -0.0000
     55 C         140.7219  140.0454  167.5357 C.ar    1  UNL1       -0.0003
     56 C         140.5577  139.4951  166.1500 C.ar    1  UNL1       -0.0042
     57 C         144.2050  139.3030  162.2394 C.3     1  UNL1        0.0290
     58 C         144.5463  139.8324  163.6007 C.3     1  UNL1        0.0021
     59 C         145.4356  141.0327  163.7373 C.3     1  UNL1        0.0001
     60 C         143.9984  139.1617  164.8254 C.3     1  UNL1        0.0001
@<TRIPOS>BOND
     1    15    16    1
     2    16    17   am
     3    17    18    2
     4    17    19   am
     5    19     7    1
     6     7     8    1
     7     8     9    1
     8     9    10    1
     9    10    11   am
    10    11    12    2
    11    11     6    1
    12     6    22    1
    13    22    23    1
    14    23    24    1
    15    24    25    1
    16    25    26    1
    17     6     2    1
    18     2     3   am
    19     3     4    2
    20     3     1    1
    21     1    57    1
    22    57    58    1
    23    58    59    1
    24    58    60    1
    25     1    29    1
    26    29    30   am
    27    30    31    2
    28    30    33    1
    29    33    50    1
    30    50    51    1
    31    51    52   ar
    32    52    53   ar
    33    53    54   ar
    34    54    55   ar
    35    55    56   ar
    36    33    34    1
    37    34    35   am
    38    35    36    2
    39    35    38    1
    40    38    39    1
    41    39    41    1
    42    41    42    1
    43    42    43    1
    44    42    44    1
    45    44    45   ar
    46    45    46   ar
    47    46    47   ar
    48    47    48   ar
    49    48    49   ar
    50    10    13    1
    51    13    14    1
    52    14     7    1
    53    56    51   ar
    54    49    44   ar
    55    16    20    1
    56    19    21    1
    57    26    27    1
    58    26    28    1
    59     2     5    1
    60    29    32    1
    61    34    37    1
    62    39    40    1
@<TRIPOS>MOLECULE
*****
 60 62 0 0 0
SMALL
GASTEIGER

@<TRIPOS>ATOM
      1 C         140.3278  143.9992  162.5763 C.3     1  UNL1        0.1486
      2 N         139.7785  144.1263  160.0401 N.am    1  UNL1       -0.2970
      3 C         140.7578  144.2770  161.1663 C.2     1  UNL1        0.2406
      4 O         142.1670  144.7055  160.8826 O.2     1  UNL1       -0.2733
      5 H         138.8536  143.8450  160.2263 H       1  UNL1        0.1499
      6 C         140.2085  144.4040  158.6301 C.3     1  UNL1        0.1488
      7 C         144.5882  141.6960  156.9763 C.3     1  UNL1        0.0765
      8 C         143.4238  141.0840  156.2555 C.3     1  UNL1        0.0412
      9 C         142.0378  141.6080  156.4887 C.3     1  UNL1        0.0951
     10 N         141.8162  142.7440  157.4428 N.am    1  UNL1       -0.2781
     11 C         140.4302  143.2680  157.6760 C.2     1  UNL1        0.2435
     12 O         139.2658  142.6561  156.9552 O.2     1  UNL1       -0.2731
     13 C         142.9805  143.3560  158.1636 C.3     1  UNL1        0.0951
     14 C         144.3665  142.8320  157.9304 C.3     1  UNL1        0.0412
     15 C         149.1676  142.0110  154.5413 C.3     1  UNL1        0.1122
     16 N         148.2639  141.3295  155.5256 N.am    1  UNL1       -0.2872
     17 C         146.8779  141.8535  155.7588 C.2     1  UNL1        0.3008
     18 O         146.3956  143.0591  155.0077 O.2     1  UNL1       -0.2528
     19 N         145.9742  141.1720  156.7431 N.am    1  UNL1       -0.2905
     20 H         148.5804  140.5382  156.0185 H       1  UNL1        0.1510
     21 H         146.2907  140.3807  157.2360 H       1  UNL1        0.1509
     22 C         140.4169  145.8178  158.1743 C.3     1  UNL1        0.0290
     23 C         140.5052  146.1282  156.7094 C.3     1  UNL1        0.0036
     24 C         139.2682  146.4963  155.9448 C.3     1  UNL1        0.0169
     25 C         138.9300  147.9395  155.7153 C.3     1  UNL1        0.0651
     26 N         138.5415  148.8119  156.8721 N.3     1  UNL1       -0.3211
     27 H         137.6551  148.4884  157.2593 H       1  UNL1        0.1189
     28 H         138.4416  149.7755  156.5527 H       1  UNL1        0.1189
     29 N         140.8344  142.7802  163.2885 N.am    1  UNL1       -0.2970
     30 C         142.0506  142.8729  164.1617 C.2     1  UNL1        0.2410
     31 O         142.7601  144.1847  164.3227 O.2     1  UNL1       -0.2733
     32 H         140.3687  141.9192  163.1829 H       1  UNL1        0.1499
     33 C         142.5572  141.6539  164.8739 C.3     1  UNL1        0.1530
     34 N         142.3244  140.2924  164.2888 N.am    1  UNL1       -0.2969
     35 C         143.3208  139.7065  163.3329 C.2     1  UNL1        0.2389
     36 O         144.5501  140.4820  162.9621 O.2     1  UNL1       -0.2736
     37 H         141.5176  139.7834  164.5322 H       1  UNL1        0.1499
     38 C         143.0880  138.3451  162.7479 C.3     1  UNL1        0.1549
     39 N         141.7040  137.7671  162.7207 N.3     1  UNL1       -0.2895
     40 H         141.3390  137.8324  163.6709 H       1  UNL1        0.1237
     41 C         140.6630  138.3559  161.8155 C.3     1  UNL1        0.0733
     42 C         139.2334  138.4281  162.2639 C.3     1  UNL1        0.0381
     43 C         138.1252  138.2640  161.2663 C.3     1  UNL1        0.0061
     44 C         138.9119  138.6645  163.7098 C.ar    1  UNL1       -0.0212
     45 C         138.7536  140.0648  164.2238 C.ar    1  UNL1       -0.0042
     46 C         138.4321  140.3012  165.6698 C.ar    1  UNL1       -0.0003
     47 C         138.2690  139.1372  166.6018 C.ar    1  UNL1       -0.0000
     48 C         138.4273  137.7369  166.0878 C.ar    1  UNL1       -0.0003
     49 C         138.7487  137.5006  164.6418 C.ar    1  UNL1       -0.0042
     50 C         143.2966  141.7962  166.1712 C.3     1  UNL1        0.0553
     51 C         142.5557  142.1756  167.4191 C.ar    1  UNL1       -0.0200
     52 C         141.0591  142.2746  167.4019 C.ar    1  UNL1       -0.0042
     53 C         140.3182  142.6540  168.6498 C.ar    1  UNL1       -0.0003
     54 C         141.0739  142.9343  169.9148 C.ar    1  UNL1       -0.0000
     55 C         142.5706  142.8353  169.9320 C.ar    1  UNL1       -0.0003
     56 C         143.3115  142.4560  168.6841 C.ar    1  UNL1       -0.0042
     57 C         139.3912  144.9405  163.2740 C.3     1  UNL1        0.0290
     58 C         138.5346  144.4471  164.4022 C.3     1  UNL1        0.0021
     59 C         138.8544  144.8401  165.8141 C.3     1  UNL1        0.0001
     60 C         137.3583  143.5606  164.1185 C.3     1  UNL1        0.0001
@<TRIPOS>BOND
     1    15    16    1
     2    16    17   am
     3    17    18    2
     4    17    19   am
     5    19     7    1
     6     7     8    1
     7     8     9    1
     8     9    10    1
     9    10    11   am
    10    11    12    2
    11    11     6    1
    12     6    22    1
    13    22    23    1
    14    23    24    1
    15    24    25    1
    16    25    26    1
    17     6     2    1
    18     2     3   am
    19     3     4    2
    20     3     1    1
    21     1    57    1
    22    57    58    1
    23    58    59    1
    24    58    60    1
    25     1    29    1
    26    29    30   am
    27    30    31    2
    28    30    33    1
    29    33    50    1
    30    50    51    1
    31    51    52   ar
    32    52    53   ar
    33    53    54   ar
    34    54    55   ar
    35    55    56   ar
    36    33    34    1
    37    34    35   am
    38    35    36    2
    39    35    38    1
    40    38    39    1
    41    39    41    1
    42    41    42    1
    43    42    43    1
    44    42    44    1
    45    44    45   ar
    46    45    46   ar
    47    46    47   ar
    48    47    48   ar
    49    48    49   ar
    50    10    13    1
    51    13    14    1
    52    14     7    1
    53    56    51   ar
    54    49    44   ar
    55    16    20    1
    56    19    21    1
    57    26    27    1
    58    26    28    1
    59     2     5    1
    60    29    32    1
    61    34    37    1
    62    39    40    1
@<TRIPOS>MOLECULE
*****
 60 62 0 0 0
SMALL
GASTEIGER

@<TRIPOS>ATOM
      1 C         140.6106  139.0124  161.4997 C.3     1  UNL1        0.1486
      2 N         142.0131  139.7932  159.4567 N.am    1  UNL1       -0.2970
      3 C         140.7491  139.2141  160.0197 C.2     1  UNL1        0.2406
      4 O         139.6236  138.8366  159.1028 O.2     1  UNL1       -0.2733
      5 H         142.7518  140.0409  160.0586 H       1  UNL1        0.1499
      6 C         142.1516  139.9948  157.9768 C.3     1  UNL1        0.1488
      7 C         141.9553  135.3995  155.1317 C.3     1  UNL1        0.0765
      8 C         143.3741  135.8792  155.0498 C.3     1  UNL1        0.0412
      9 C         143.7779  137.1480  155.7406 C.3     1  UNL1        0.0951
     10 N         142.7629  137.9370  156.5133 N.am    1  UNL1       -0.2781
     11 C         143.1666  139.2058  157.2041 C.2     1  UNL1        0.2435
     12 O         144.5855  139.6855  157.1222 O.2     1  UNL1       -0.2731
     13 C         141.3440  137.4573  156.5952 C.3     1  UNL1        0.0951
     14 C         140.9403  136.1885  155.9044 C.3     1  UNL1        0.0412
     15 C         141.3922  130.2341  155.1765 C.3     1  UNL1        0.1122
     16 N         141.2700  131.5481  154.4632 N.am    1  UNL1       -0.2872
     17 C         141.6738  132.8168  155.1541 C.2     1  UNL1        0.3008
     18 O         142.1998  132.7717  156.5581 O.2     1  UNL1       -0.2528
     19 N         141.5515  134.1307  154.4409 N.am    1  UNL1       -0.2905
     20 H         140.9247  131.5777  153.5417 H       1  UNL1        0.1510
     21 H         141.2063  134.1604  153.5194 H       1  UNL1        0.1509
     22 C         141.2750  140.9855  157.2696 C.3     1  UNL1        0.0290
     23 C         141.2277  142.4110  157.7343 C.3     1  UNL1        0.0036
     24 C         140.1102  142.8739  158.6213 C.3     1  UNL1        0.0169
     25 C         140.3152  142.9565  160.1049 C.3     1  UNL1        0.0651
     26 N         141.6567  142.6377  160.6955 N.3     1  UNL1       -0.3211
     27 H         141.8669  141.6504  160.5488 H       1  UNL1        0.1189
     28 H         141.6441  142.8377  161.6956 H       1  UNL1        0.1189
     29 N         141.1224  140.0544  162.4497 N.am    1  UNL1       -0.2970
     30 C         142.4883  139.9129  163.0533 C.2     1  UNL1        0.2410
     31 O         143.3425  138.7296  162.7068 O.2     1  UNL1       -0.2733
     32 H         140.5617  140.8310  162.6771 H       1  UNL1        0.1499
     33 C         143.0000  140.9549  164.0033 C.3     1  UNL1        0.1530
     34 N         142.9906  142.4013  163.6061 N.am    1  UNL1       -0.2969
     35 C         144.2475  143.0502  163.1069 C.2     1  UNL1        0.2389
     36 O         145.5138  142.2527  163.0049 O.2     1  UNL1       -0.2736
     37 H         142.1595  142.9248  163.6730 H       1  UNL1        0.1499
     38 C         144.2380  144.4966  162.7097 C.3     1  UNL1        0.1549
     39 N         142.9582  145.1463  162.2735 N.3     1  UNL1       -0.2895
     40 H         142.5288  144.5219  161.5908 H       1  UNL1        0.1237
     41 C         141.9008  145.4744  163.2855 C.3     1  UNL1        0.0733
     42 C         140.4533  145.2663  162.9520 C.3     1  UNL1        0.0381
     43 C         139.7641  146.1909  161.9927 C.3     1  UNL1        0.0061
     44 C         139.6948  144.1335  163.5778 C.ar    1  UNL1       -0.0212
     45 C         140.2512  143.4330  164.7819 C.ar    1  UNL1       -0.0042
     46 C         139.4927  142.3002  165.4076 C.ar    1  UNL1       -0.0003
     47 C         138.1778  141.8680  164.8293 C.ar    1  UNL1       -0.0000
     48 C         137.6215  142.5685  163.6253 C.ar    1  UNL1       -0.0003
     49 C         138.3800  143.7013  162.9995 C.ar    1  UNL1       -0.0042
     50 C         143.5211  140.5504  165.3504 C.3     1  UNL1        0.0553
     51 C         142.7050  140.8154  166.5808 C.ar    1  UNL1       -0.0200
     52 C         141.7611  139.7689  167.0944 C.ar    1  UNL1       -0.0042
     53 C         140.9449  140.0339  168.3247 C.ar    1  UNL1       -0.0003
     54 C         141.0728  141.3453  169.0415 C.ar    1  UNL1       -0.0000
     55 C         142.0168  142.3919  168.5279 C.ar    1  UNL1       -0.0003
     56 C         142.8329  142.1269  167.2975 C.ar    1  UNL1       -0.0042
     57 C         139.9605  137.7689  162.0296 C.3     1  UNL1        0.0290
     58 C         139.8542  137.5506  163.5098 C.3     1  UNL1        0.0021
     59 C         138.7084  138.1435  164.2750 C.3     1  UNL1        0.0001
     60 C         140.8938  136.7393  164.2248 C.3     1  UNL1        0.0001
@<TRIPOS>BOND
     1    15    16    1
     2    16    17   am
     3    17    18    2
     4    17    19   am
     5    19     7    1
     6     7     8    1
     7     8     9    1
     8     9    10    1
     9    10    11   am
    10    11    12    2
    11    11     6    1
    12     6    22    1
    13    22    23    1
    14    23    24    1
    15    24    25    1
    16    25    26    1
    17     6     2    1
    18     2     3   am
    19     3     4    2
    20     3     1    1
    21     1    57    1
    22    57    58    1
    23    58    59    1
    24    58    60    1
    25     1    29    1
    26    29    30   am
    27    30    31    2
    28    30    33    1
    29    33    50    1
    30    50    51    1
    31    51    52   ar
    32    52    53   ar
    33    53    54   ar
    34    54    55   ar
    35    55    56   ar
    36    33    34    1
    37    34    35   am
    38    35    36    2
    39    35    38    1
    40    38    39    1
    41    39    41    1
    42    41    42    1
    43    42    43    1
    44    42    44    1
    45    44    45   ar
    46    45    46   ar
    47    46    47   ar
    48    47    48   ar
    49    48    49   ar
    50    10    13    1
    51    13    14    1
    52    14     7    1
    53    56    51   ar
    54    49    44   ar
    55    16    20    1
    56    19    21    1
    57    26    27    1
    58    26    28    1
    59     2     5    1
    60    29    32    1
    61    34    37    1
    62    39    40    1
@<TRIPOS>MOLECULE
*****
 60 62 0 0 0
SMALL
GASTEIGER

@<TRIPOS>ATOM
      1 C         138.7812  142.3571  158.0970 C.3     1  UNL1        0.1486
      2 N         140.5758  140.4852  158.2557 N.am    1  UNL1       -0.2970
      3 C         139.1400  140.9010  158.1321 C.2     1  UNL1        0.2406
      4 O         138.0628  139.8608  158.0437 O.2     1  UNL1       -0.2733
      5 H         141.2828  141.1679  158.3137 H       1  UNL1        0.1499
      6 C         140.9347  139.0291  158.2908 C.3     1  UNL1        0.1488
      7 C         139.5062  137.7477  163.3472 C.3     1  UNL1        0.0765
      8 C         140.9667  137.4251  163.2330 C.3     1  UNL1        0.0412
      9 C         141.6889  137.6648  161.9404 C.3     1  UNL1        0.0951
     10 N         140.9507  138.2271  160.7619 N.am    1  UNL1       -0.2781
     11 C         141.6729  138.4668  159.4693 C.2     1  UNL1        0.2435
     12 O         143.1333  138.1442  159.3551 O.2     1  UNL1       -0.2731
     13 C         139.4902  138.5497  160.8761 C.3     1  UNL1        0.0951
     14 C         138.7680  138.3100  162.1688 C.3     1  UNL1        0.0412
     15 C         138.1964  139.3097  168.1268 C.3     1  UNL1        0.1122
     16 N         138.1291  138.2889  167.0297 N.am    1  UNL1       -0.2872
     17 C         138.8513  138.5286  165.7370 C.2     1  UNL1        0.3008
     18 O         139.6408  139.7891  165.5415 O.2     1  UNL1       -0.2528
     19 N         138.7840  137.5080  164.6399 N.am    1  UNL1       -0.2905
     20 H         137.6109  137.4617  167.1580 H       1  UNL1        0.1510
     21 H         138.2659  136.6808  164.7682 H       1  UNL1        0.1509
     22 C         140.5552  138.1354  157.1474 C.3     1  UNL1        0.0290
     23 C         141.0490  138.4375  155.7635 C.3     1  UNL1        0.0036
     24 C         142.5216  138.5444  155.4993 C.3     1  UNL1        0.0169
     25 C         143.4559  137.4950  156.0244 C.3     1  UNL1        0.0651
     26 N         144.7604  137.2370  155.3302 N.3     1  UNL1       -0.3211
     27 H         144.5815  136.8568  154.4008 H       1  UNL1        0.1189
     28 H         145.3073  136.5678  155.8719 H       1  UNL1        0.1189
     29 N         139.1055  143.2379  159.2671 N.am    1  UNL1       -0.2970
     30 C         140.4952  143.7763  159.4380 C.2     1  UNL1        0.2410
     31 O         141.5603  143.4339  158.4390 O.2     1  UNL1       -0.2733
     32 H         138.4064  143.4626  159.9228 H       1  UNL1        0.1499
     33 C         140.8195  144.6571  160.6081 C.3     1  UNL1        0.1530
     34 N         142.2439  144.8268  161.0469 N.am    1  UNL1       -0.2969
     35 C         142.8320  143.8931  162.0629 C.2     1  UNL1        0.2389
     36 O         141.9958  142.7896  162.6401 O.2     1  UNL1       -0.2736
     37 H         142.7927  145.5510  160.6681 H       1  UNL1        0.1499
     38 C         144.2562  144.0628  162.5017 C.3     1  UNL1        0.1549
     39 N         145.2547  142.9728  162.2464 N.3     1  UNL1       -0.2895
     40 H         146.1462  143.4294  162.0535 H       1  UNL1        0.1237
     41 C         145.5180  141.9356  163.2975 C.3     1  UNL1        0.0733
     42 C         144.6433  140.7204  163.3877 C.3     1  UNL1        0.0381
     43 C         144.4215  139.8644  162.1760 C.3     1  UNL1        0.0061
     44 C         143.9903  140.3613  164.6894 C.ar    1  UNL1       -0.0212
     45 C         143.4315  141.4389  165.5707 C.ar    1  UNL1       -0.0042
     46 C         142.7785  141.0797  166.8724 C.ar    1  UNL1       -0.0003
     47 C         142.6844  139.6429  167.2930 C.ar    1  UNL1       -0.0000
     48 C         143.2433  138.5654  166.4118 C.ar    1  UNL1       -0.0003
     49 C         143.8962  138.9246  165.1100 C.ar    1  UNL1       -0.0042
     50 C         139.7197  145.3681  161.3392 C.3     1  UNL1        0.0553
     51 C         139.1152  144.7531  162.5666 C.ar    1  UNL1       -0.0200
     52 C         139.5502  145.2113  163.9270 C.ar    1  UNL1       -0.0042
     53 C         138.9457  144.5963  165.1544 C.ar    1  UNL1       -0.0003
     54 C         137.9062  143.5232  165.0213 C.ar    1  UNL1       -0.0000
     55 C         137.4711  143.0650  163.6608 C.ar    1  UNL1       -0.0003
     56 C         138.0756  143.6799  162.4335 C.ar    1  UNL1       -0.0042
     57 C         138.0980  142.9323  156.8919 C.3     1  UNL1        0.0290
     58 C         138.7737  142.8864  155.5535 C.3     1  UNL1        0.0021
     59 C         139.7888  143.9291  155.1896 C.3     1  UNL1        0.0001
     60 C         138.4343  141.7978  154.5790 C.3     1  UNL1        0.0001
@<TRIPOS>BOND
     1    15    16    1
     2    16    17   am
     3    17    18    2
     4    17    19   am
     5    19     7    1
     6     7     8    1
     7     8     9    1
     8     9    10    1
     9    10    11   am
    10    11    12    2
    11    11     6    1
    12     6    22    1
    13    22    23    1
    14    23    24    1
    15    24    25    1
    16    25    26    1
    17     6     2    1
    18     2     3   am
    19     3     4    2
    20     3     1    1
    21     1    57    1
    22    57    58    1
    23    58    59    1
    24    58    60    1
    25     1    29    1
    26    29    30   am
    27    30    31    2
    28    30    33    1
    29    33    50    1
    30    50    51    1
    31    51    52   ar
    32    52    53   ar
    33    53    54   ar
    34    54    55   ar
    35    55    56   ar
    36    33    34    1
    37    34    35   am
    38    35    36    2
    39    35    38    1
    40    38    39    1
    41    39    41    1
    42    41    42    1
    43    42    43    1
    44    42    44    1
    45    44    45   ar
    46    45    46   ar
    47    46    47   ar
    48    47    48   ar
    49    48    49   ar
    50    10    13    1
    51    13    14    1
    52    14     7    1
    53    56    51   ar
    54    49    44   ar
    55    16    20    1
    56    19    21    1
    57    26    27    1
    58    26    28    1
    59     2     5    1
    60    29    32    1
    61    34    37    1
    62    39    40    1
@<TRIPOS>MOLECULE
*****
 60 62 0 0 0
SMALL
GASTEIGER

@<TRIPOS>ATOM
      1 C         140.4707  144.8020  156.8969 C.3     1  UNL1        0.1486
      2 N         142.5059  143.1985  156.7051 N.am    1  UNL1       -0.2970
      3 C         141.1643  143.6587  156.2172 C.2     1  UNL1        0.2406
      4 O         140.5161  142.9757  155.0496 O.2     1  UNL1       -0.2733
      5 H         142.9313  143.6469  157.4715 H       1  UNL1        0.1499
      6 C         143.1995  142.0552  156.0254 C.3     1  UNL1        0.1488
      7 C         143.5882  139.2460  160.6305 C.3     1  UNL1        0.0765
      8 C         143.0245  138.2998  159.6123 C.3     1  UNL1        0.0412
      9 C         142.7864  138.7655  158.2064 C.3     1  UNL1        0.0951
     10 N         143.1120  140.1775  157.8188 N.am    1  UNL1       -0.2781
     11 C         142.8739  140.6433  156.4130 C.2     1  UNL1        0.2435
     12 O         142.3102  139.6971  155.3948 O.2     1  UNL1       -0.2731
     13 C         143.6757  141.1237  158.8371 C.3     1  UNL1        0.0951
     14 C         143.9138  140.6579  160.2429 C.3     1  UNL1        0.0412
     15 C         141.8849  138.5506  165.4900 C.3     1  UNL1        0.1122
     16 N         142.9747  138.4325  164.4661 N.am    1  UNL1       -0.2872
     17 C         142.7366  138.8983  163.0603 C.2     1  UNL1        0.3008
     18 O         141.4086  139.4821  162.6784 O.2     1  UNL1       -0.2528
     19 N         143.8263  138.7802  162.0363 N.am    1  UNL1       -0.2905
     20 H         143.8462  138.0493  164.7167 H       1  UNL1        0.1510
     21 H         144.6979  138.3970  162.2870 H       1  UNL1        0.1509
     22 C         144.2187  142.3240  154.9581 C.3     1  UNL1        0.0290
     23 C         145.4399  141.4594  154.8525 C.3     1  UNL1        0.0036
     24 C         146.6839  141.8231  155.6076 C.3     1  UNL1        0.0169
     25 C         146.5869  142.3075  157.0239 C.3     1  UNL1        0.0651
     26 N         147.4353  143.4560  157.4834 N.3     1  UNL1       -0.3211
     27 H         148.4177  143.1824  157.4636 H       1  UNL1        0.1189
     28 H         147.1731  143.7130  158.4351 H       1  UNL1        0.1189
     29 N         139.8118  144.5947  158.2284 N.am    1  UNL1       -0.2970
     30 C         140.6426  144.5431  159.4764 C.2     1  UNL1        0.2410
     31 O         142.1321  144.6987  159.3928 O.2     1  UNL1       -0.2733
     32 H         138.8342  144.4926  158.2833 H       1  UNL1        0.1499
     33 C         139.9837  144.3358  160.8079 C.3     1  UNL1        0.1530
     34 N         138.8224  143.3943  160.9315 N.am    1  UNL1       -0.2969
     35 C         139.0098  141.9319  160.6557 C.2     1  UNL1        0.2389
     36 O         140.3584  141.4108  160.2561 O.2     1  UNL1       -0.2736
     37 H         137.9372  143.7363  161.1938 H       1  UNL1        0.1499
     38 C         137.8485  140.9906  160.7793 C.3     1  UNL1        0.1549
     39 N         137.2817  140.6724  162.1312 N.3     1  UNL1       -0.2895
     40 H         136.3941  140.1951  161.9734 H       1  UNL1        0.1237
     41 C         138.0633  139.8264  163.0921 C.3     1  UNL1        0.0733
     42 C         138.2354  140.2711  164.5143 C.3     1  UNL1        0.0381
     43 C         138.1208  139.2755  165.6304 C.3     1  UNL1        0.0061
     44 C         138.5220  141.7112  164.8204 C.ar    1  UNL1       -0.0212
     45 C         139.7351  142.0806  165.6218 C.ar    1  UNL1       -0.0042
     46 C         140.0218  143.5208  165.9279 C.ar    1  UNL1       -0.0003
     47 C         139.0953  144.5916  165.4327 C.ar    1  UNL1       -0.0000
     48 C         137.8823  144.2222  164.6314 C.ar    1  UNL1       -0.0003
     49 C         137.5957  142.7820  164.3252 C.ar    1  UNL1       -0.0042
     50 C         140.4860  145.0698  162.0156 C.3     1  UNL1        0.0553
     51 C         141.6288  144.5117  162.8110 C.ar    1  UNL1       -0.0200
     52 C         141.9077  143.0381  162.7906 C.ar    1  UNL1       -0.0042
     53 C         143.0505  142.4800  163.5860 C.ar    1  UNL1       -0.0003
     54 C         143.9143  143.3955  164.4017 C.ar    1  UNL1       -0.0000
     55 C         143.6354  144.8693  164.4221 C.ar    1  UNL1       -0.0003
     56 C         142.4926  145.4274  163.6268 C.ar    1  UNL1       -0.0042
     57 C         140.4361  146.1525  156.2451 C.3     1  UNL1        0.0290
     58 C         139.1700  146.6467  155.6105 C.3     1  UNL1        0.0021
     59 C         138.9451  148.1192  155.4329 C.3     1  UNL1        0.0001
     60 C         138.1286  145.6686  155.1536 C.3     1  UNL1        0.0001
@<TRIPOS>BOND
     1    15    16    1
     2    16    17   am
     3    17    18    2
     4    17    19   am
     5    19     7    1
     6     7     8    1
     7     8     9    1
     8     9    10    1
     9    10    11   am
    10    11    12    2
    11    11     6    1
    12     6    22    1
    13    22    23    1
    14    23    24    1
    15    24    25    1
    16    25    26    1
    17     6     2    1
    18     2     3   am
    19     3     4    2
    20     3     1    1
    21     1    57    1
    22    57    58    1
    23    58    59    1
    24    58    60    1
    25     1    29    1
    26    29    30   am
    27    30    31    2
    28    30    33    1
    29    33    50    1
    30    50    51    1
    31    51    52   ar
    32    52    53   ar
    33    53    54   ar
    34    54    55   ar
    35    55    56   ar
    36    33    34    1
    37    34    35   am
    38    35    36    2
    39    35    38    1
    40    38    39    1
    41    39    41    1
    42    41    42    1
    43    42    43    1
    44    42    44    1
    45    44    45   ar
    46    45    46   ar
    47    46    47   ar
    48    47    48   ar
    49    48    49   ar
    50    10    13    1
    51    13    14    1
    52    14     7    1
    53    56    51   ar
    54    49    44   ar
    55    16    20    1
    56    19    21    1
    57    26    27    1
    58    26    28    1
    59     2     5    1
    60    29    32    1
    61    34    37    1
    62    39    40    1
@<TRIPOS>MOLECULE
*****
 60 62 0 0 0
SMALL
GASTEIGER

@<TRIPOS>ATOM
      1 C         141.9442  144.7390  157.4457 C.3     1  UNL1        0.1486
      2 N         142.1403  142.2198  158.0501 N.am    1  UNL1       -0.2970
      3 C         141.8825  143.2967  157.0383 C.2     1  UNL1        0.2406
      4 O         141.5631  142.9313  155.6189 O.2     1  UNL1       -0.2733
      5 H         142.3500  142.4597  158.9817 H       1  UNL1        0.1499
      6 C         142.0787  140.7775  157.6427 C.3     1  UNL1        0.1488
      7 C         140.0923  138.1977  161.9611 C.3     1  UNL1        0.0765
      8 C         139.0953  137.9932  160.8593 C.3     1  UNL1        0.0412
      9 C         139.3426  138.5870  159.5042 C.3     1  UNL1        0.0951
     10 N         140.5870  139.3853  159.2510 N.am    1  UNL1       -0.2781
     11 C         140.8343  139.9791  157.8959 C.2     1  UNL1        0.2435
     12 O         139.8373  139.7746  156.7941 O.2     1  UNL1       -0.2731
     13 C         141.5840  139.5899  160.3528 C.3     1  UNL1        0.0951
     14 C         141.3366  138.9961  161.7079 C.3     1  UNL1        0.0412
     15 C         137.8582  138.4511  166.6457 C.3     1  UNL1        0.1122
     16 N         138.7279  137.7306  165.6585 N.am    1  UNL1       -0.2872
     17 C         138.9753  138.3244  164.3034 C.2     1  UNL1        0.3008
     18 O         138.3529  139.6387  163.9356 O.2     1  UNL1       -0.2528
     19 N         139.8449  137.6039  163.3162 N.am    1  UNL1       -0.2905
     20 H         139.1364  136.8680  165.8999 H       1  UNL1        0.1510
     21 H         140.2534  136.7413  163.5576 H       1  UNL1        0.1509
     22 C         143.2614  140.1336  156.9821 C.3     1  UNL1        0.0290
     23 C         144.6515  140.5517  157.3603 C.3     1  UNL1        0.0036
     24 C         145.6327  140.9433  156.2955 C.3     1  UNL1        0.0169
     25 C         145.8014  142.3870  155.9253 C.3     1  UNL1        0.0651
     26 N         144.7279  143.0933  155.1515 N.3     1  UNL1       -0.3211
     27 H         144.6563  142.6854  154.2194 H       1  UNL1        0.1189
     28 H         144.9610  144.0832  155.0725 H       1  UNL1        0.1189
     29 N         142.0972  145.1038  158.8926 N.am    1  UNL1       -0.2970
     30 C         140.9355  144.9568  159.8301 C.2     1  UNL1        0.2410
     31 O         139.6207  144.4451  159.3206 O.2     1  UNL1       -0.2733
     32 H         142.9602  145.4396  159.2270 H       1  UNL1        0.1499
     33 C         141.0885  145.3215  161.2770 C.3     1  UNL1        0.1530
     34 N         142.4300  145.2144  161.9396 N.am    1  UNL1       -0.2969
     35 C         143.1852  143.9190  161.8991 C.2     1  UNL1        0.2389
     36 O         142.5989  142.7307  161.1960 O.2     1  UNL1       -0.2736
     37 H         142.8148  145.9943  162.4010 H       1  UNL1        0.1499
     38 C         144.5266  143.8119  162.5617 C.3     1  UNL1        0.1549
     39 N         145.2777  142.5139  162.5292 N.3     1  UNL1       -0.2895
     40 H         146.2228  142.7285  162.2112 H       1  UNL1        0.1237
     41 C         145.4166  141.6962  163.7790 C.3     1  UNL1        0.0733
     42 C         144.4399  140.5948  164.0669 C.3     1  UNL1        0.0381
     43 C         144.5343  139.2953  163.3237 C.3     1  UNL1        0.0061
     44 C         143.3688  140.7928  165.0982 C.ar    1  UNL1       -0.0212
     45 C         142.6954  139.6043  165.7180 C.ar    1  UNL1       -0.0042
     46 C         141.6243  139.8023  166.7492 C.ar    1  UNL1       -0.0003
     47 C         141.2265  141.1889  167.1607 C.ar    1  UNL1       -0.0000
     48 C         141.8998  142.3774  166.5409 C.ar    1  UNL1       -0.0003
     49 C         142.9709  142.1793  165.5096 C.ar    1  UNL1       -0.0042
     50 C         139.9002  145.7934  162.0612 C.3     1  UNL1        0.0553
     51 C         139.2065  144.8584  163.0071 C.ar    1  UNL1       -0.0200
     52 C         138.1485  143.9250  162.4980 C.ar    1  UNL1       -0.0042
     53 C         137.4548  142.9901  163.4439 C.ar    1  UNL1       -0.0003
     54 C         137.8192  142.9885  164.8989 C.ar    1  UNL1       -0.0000
     55 C         138.8773  143.9220  165.4081 C.ar    1  UNL1       -0.0003
     56 C         139.5710  144.8569  164.4622 C.ar    1  UNL1       -0.0042
     57 C         141.8527  145.8166  156.4062 C.3     1  UNL1        0.0290
     58 C         140.5147  146.2252  155.8653 C.3     1  UNL1        0.0021
     59 C         139.5309  146.9302  156.7516 C.3     1  UNL1        0.0001
     60 C         140.1603  145.9289  154.4382 C.3     1  UNL1        0.0001
@<TRIPOS>BOND
     1    15    16    1
     2    16    17   am
     3    17    18    2
     4    17    19   am
     5    19     7    1
     6     7     8    1
     7     8     9    1
     8     9    10    1
     9    10    11   am
    10    11    12    2
    11    11     6    1
    12     6    22    1
    13    22    23    1
    14    23    24    1
    15    24    25    1
    16    25    26    1
    17     6     2    1
    18     2     3   am
    19     3     4    2
    20     3     1    1
    21     1    57    1
    22    57    58    1
    23    58    59    1
    24    58    60    1
    25     1    29    1
    26    29    30   am
    27    30    31    2
    28    30    33    1
    29    33    50    1
    30    50    51    1
    31    51    52   ar
    32    52    53   ar
    33    53    54   ar
    34    54    55   ar
    35    55    56   ar
    36    33    34    1
    37    34    35   am
    38    35    36    2
    39    35    38    1
    40    38    39    1
    41    39    41    1
    42    41    42    1
    43    42    43    1
    44    42    44    1
    45    44    45   ar
    46    45    46   ar
    47    46    47   ar
    48    47    48   ar
    49    48    49   ar
    50    10    13    1
    51    13    14    1
    52    14     7    1
    53    56    51   ar
    54    49    44   ar
    55    16    20    1
    56    19    21    1
    57    26    27    1
    58    26    28    1
    59     2     5    1
    60    29    32    1
    61    34    37    1
    62    39    40    1
@<TRIPOS>MOLECULE
*****
 60 62 0 0 0
SMALL
GASTEIGER

@<TRIPOS>ATOM
      1 C         142.6744  138.2073  157.0750 C.3     1  UNL1        0.1486
      2 N         143.1384  140.7592  156.9251 N.am    1  UNL1       -0.2970
      3 C         142.4261  139.5370  156.4266 C.2     1  UNL1        0.2406
      4 O         141.4653  139.6443  155.2797 O.2     1  UNL1       -0.2733
      5 H         143.7690  140.6888  157.6778 H       1  UNL1        0.1499
      6 C         142.8900  142.0889  156.2767 C.3     1  UNL1        0.1488
      7 C         141.1061  144.7152  160.6550 C.3     1  UNL1        0.0765
      8 C         140.0339  144.8617  159.6164 C.3     1  UNL1        0.0412
      9 C         140.2119  144.2418  158.2621 C.3     1  UNL1        0.0951
     10 N         141.4620  143.4753  157.9465 N.am    1  UNL1       -0.2781
     11 C         141.6399  142.8554  156.5923 C.2     1  UNL1        0.2435
     12 O         140.5677  143.0019  155.5536 O.2     1  UNL1       -0.2731
     13 C         142.5342  143.3288  158.9852 C.3     1  UNL1        0.0951
     14 C         142.3563  143.9487  160.3394 C.3     1  UNL1        0.0412
     15 C         138.8256  144.7498  165.3238 C.3     1  UNL1        0.1122
     16 N         139.7880  145.3525  164.3437 N.am    1  UNL1       -0.2872
     17 C         139.9659  144.7325  162.9894 C.2     1  UNL1        0.3008
     18 O         139.1814  143.5099  162.6153 O.2     1  UNL1       -0.2528
     19 N         140.9282  145.3352  162.0093 N.am    1  UNL1       -0.2905
     20 H         140.3028  146.1549  164.5892 H       1  UNL1        0.1510
     21 H         141.4431  146.1376  162.2548 H       1  UNL1        0.1509
     22 C         143.8918  142.6520  155.3127 C.3     1  UNL1        0.0290
     23 C         144.1726  141.9409  154.0221 C.3     1  UNL1        0.0036
     24 C         145.4085  141.1026  153.8811 C.3     1  UNL1        0.0169
     25 C         146.3079  140.8880  155.0622 C.3     1  UNL1        0.0651
     26 N         145.9763  139.8329  156.0755 N.3     1  UNL1       -0.3211
     27 H         145.1153  140.0858  156.5604 H       1  UNL1        0.1189
     28 H         146.7374  139.7586  156.7505 H       1  UNL1        0.1189
     29 N         142.3045  137.9932  158.5128 N.am    1  UNL1       -0.2970
     30 C         143.1441  138.5945  159.6008 C.2     1  UNL1        0.2410
     31 O         144.3536  139.4097  159.2509 O.2     1  UNL1       -0.2733
     32 H         141.5106  137.4582  158.7424 H       1  UNL1        0.1499
     33 C         142.7741  138.3804  161.0386 C.3     1  UNL1        0.1530
     34 N         141.4031  137.8868  161.3948 N.am    1  UNL1       -0.2969
     35 C         140.1941  138.6851  161.0062 C.2     1  UNL1        0.2389
     36 O         140.3561  139.9771  160.2614 O.2     1  UNL1       -0.2736
     37 H         141.2968  137.0389  161.8836 H       1  UNL1        0.1499
     38 C         138.8232  138.1915  161.3623 C.3     1  UNL1        0.1549
     39 N         138.2953  138.3823  162.7534 N.3     1  UNL1       -0.2895
     40 H         138.4900  137.5205  163.2630 H       1  UNL1        0.1237
     41 C         138.8042  139.5107  163.6005 C.3     1  UNL1        0.0733
     42 C         139.1081  139.2813  165.0514 C.3     1  UNL1        0.0381
     43 C         137.9880  139.1134  166.0349 C.3     1  UNL1        0.0061
     44 C         140.5321  139.2198  165.5188 C.ar    1  UNL1       -0.0212
     45 C         141.0738  140.2924  166.4167 C.ar    1  UNL1       -0.0042
     46 C         142.4978  140.2309  166.8841 C.ar    1  UNL1       -0.0003
     47 C         143.3801  139.0968  166.4536 C.ar    1  UNL1       -0.0000
     48 C         142.8384  138.0242  165.5558 C.ar    1  UNL1       -0.0003
     49 C         141.4144  138.0857  165.0883 C.ar    1  UNL1       -0.0042
     50 C         143.7750  138.6600  162.1202 C.3     1  UNL1        0.0553
     51 C         143.7843  139.9934  162.8071 C.ar    1  UNL1       -0.0200
     52 C         142.5363  140.8245  162.8485 C.ar    1  UNL1       -0.0042
     53 C         142.5456  142.1579  163.5354 C.ar    1  UNL1       -0.0003
     54 C         143.8029  142.6603  164.1809 C.ar    1  UNL1       -0.0000
     55 C         145.0510  141.8293  164.1395 C.ar    1  UNL1       -0.0003
     56 C         145.0417  140.4958  163.4526 C.ar    1  UNL1       -0.0042
     57 C         143.2928  137.0917  156.2856 C.3     1  UNL1        0.0290
     58 C         142.4536  135.9281  155.8477 C.3     1  UNL1        0.0021
     59 C         140.9870  136.1144  155.5938 C.3     1  UNL1        0.0001
     60 C         143.0811  134.5781  155.6636 C.3     1  UNL1        0.0001
@<TRIPOS>BOND
     1    15    16    1
     2    16    17   am
     3    17    18    2
     4    17    19   am
     5    19     7    1
     6     7     8    1
     7     8     9    1
     8     9    10    1
     9    10    11   am
    10    11    12    2
    11    11     6    1
    12     6    22    1
    13    22    23    1
    14    23    24    1
    15    24    25    1
    16    25    26    1
    17     6     2    1
    18     2     3   am
    19     3     4    2
    20     3     1    1
    21     1    57    1
    22    57    58    1
    23    58    59    1
    24    58    60    1
    25     1    29    1
    26    29    30   am
    27    30    31    2
    28    30    33    1
    29    33    50    1
    30    50    51    1
    31    51    52   ar
    32    52    53   ar
    33    53    54   ar
    34    54    55   ar
    35    55    56   ar
    36    33    34    1
    37    34    35   am
    38    35    36    2
    39    35    38    1
    40    38    39    1
    41    39    41    1
    42    41    42    1
    43    42    43    1
    44    42    44    1
    45    44    45   ar
    46    45    46   ar
    47    46    47   ar
    48    47    48   ar
    49    48    49   ar
    50    10    13    1
    51    13    14    1
    52    14     7    1
    53    56    51   ar
    54    49    44   ar
    55    16    20    1
    56    19    21    1
    57    26    27    1
    58    26    28    1
    59     2     5    1
    60    29    32    1
    61    34    37    1
    62    39    40    1
@<TRIPOS>MOLECULE
*****
 60 62 0 0 0
SMALL
GASTEIGER

@<TRIPOS>ATOM
      1 C         142.9234  139.6475  161.8024 C.3     1  UNL1        0.1486
      2 N         142.1024  139.2968  159.3625 N.am    1  UNL1       -0.2970
      3 C         143.0179  139.9711  160.3407 C.2     1  UNL1        0.2406
      4 O         144.0281  140.9691  159.8574 O.2     1  UNL1       -0.2733
      5 H         141.4394  138.6417  159.6797 H       1  UNL1        0.1499
      6 C         142.1970  139.6204  157.9008 C.3     1  UNL1        0.1488
      7 C         141.8858  135.1048  154.9408 C.3     1  UNL1        0.0765
      8 C         143.2832  135.6214  154.7660 C.3     1  UNL1        0.0412
      9 C         143.7103  136.8794  155.4623 C.3     1  UNL1        0.0951
     10 N         142.7401  137.6209  156.3334 N.am    1  UNL1       -0.2781
     11 C         143.1672  138.8790  157.0297 C.2     1  UNL1        0.2435
     12 O         144.5645  139.3956  156.8549 O.2     1  UNL1       -0.2731
     13 C         141.3427  137.1043  156.5082 C.3     1  UNL1        0.0951
     14 C         140.9156  135.8462  155.8119 C.3     1  UNL1        0.0412
     15 C         141.1586  129.9600  154.9883 C.3     1  UNL1        0.1122
     16 N         141.0951  131.2743  154.2682 N.am    1  UNL1       -0.2872
     17 C         141.5222  132.5324  154.9645 C.2     1  UNL1        0.3008
     18 O         142.0128  132.4761  156.3810 O.2     1  UNL1       -0.2528
     19 N         141.4587  133.8467  154.2445 N.am    1  UNL1       -0.2905
     20 H         140.7731  131.3112  153.3386 H       1  UNL1        0.1510
     21 H         141.1368  133.8836  153.3148 H       1  UNL1        0.1509
     22 C         141.3213  140.6856  157.3103 C.3     1  UNL1        0.0290
     23 C         141.6693  141.2922  155.9833 C.3     1  UNL1        0.0036
     24 C         142.3607  142.6220  155.9248 C.3     1  UNL1        0.0169
     25 C         143.7838  142.7481  156.3818 C.3     1  UNL1        0.0651
     26 N         144.0857  143.2187  157.7737 N.3     1  UNL1       -0.3211
     27 H         143.7867  144.1884  157.8771 H       1  UNL1        0.1189
     28 H         145.0891  143.1522  157.9449 H       1  UNL1        0.1189
     29 N         141.6511  139.9177  162.5496 N.am    1  UNL1       -0.2970
     30 C         140.5365  138.9143  162.5204 C.2     1  UNL1        0.2410
     31 O         140.6942  137.6406  161.7439 O.2     1  UNL1       -0.2733
     32 H         141.5477  140.7537  163.0592 H       1  UNL1        0.1499
     33 C         139.2643  139.1845  163.2676 C.3     1  UNL1        0.1530
     34 N         138.3479  140.2828  162.8156 N.am    1  UNL1       -0.2969
     35 C         138.6335  141.7040  163.2008 C.2     1  UNL1        0.2389
     36 O         139.8356  142.0271  164.0379 O.2     1  UNL1       -0.2736
     37 H         137.5590  140.0707  162.2662 H       1  UNL1        0.1499
     38 C         137.7172  142.8021  162.7488 C.3     1  UNL1        0.1549
     39 N         137.9539  143.4827  161.4331 N.3     1  UNL1       -0.2895
     40 H         137.4623  144.3756  161.4709 H       1  UNL1        0.1237
     41 C         139.3538  143.7777  160.9825 C.3     1  UNL1        0.0733
     42 C         140.1245  144.8986  161.6145 C.3     1  UNL1        0.0381
     43 C         139.5376  146.2782  161.6636 C.3     1  UNL1        0.0061
     44 C         141.4822  144.6400  162.1974 C.ar    1  UNL1       -0.0212
     45 C         142.3953  143.6375  161.5560 C.ar    1  UNL1       -0.0042
     46 C         143.7530  143.3789  162.1389 C.ar    1  UNL1       -0.0003
     47 C         144.1976  144.1229  163.3632 C.ar    1  UNL1       -0.0000
     48 C         143.2846  145.1253  164.0046 C.ar    1  UNL1       -0.0003
     49 C         141.9269  145.3839  163.4217 C.ar    1  UNL1       -0.0042
     50 C         138.9084  138.3566  164.4667 C.3     1  UNL1        0.0553
     51 C         139.1362  138.8987  165.8467 C.ar    1  UNL1       -0.0200
     52 C         140.4636  139.4962  166.2081 C.ar    1  UNL1       -0.0042
     53 C         140.6914  140.0382  167.5881 C.ar    1  UNL1       -0.0003
     54 C         139.5916  139.9827  168.6067 C.ar    1  UNL1       -0.0000
     55 C         138.2640  139.3851  168.2452 C.ar    1  UNL1       -0.0003
     56 C         138.0363  138.8431  166.8652 C.ar    1  UNL1       -0.0042
     57 C         144.1010  139.0536  162.5167 C.3     1  UNL1        0.0290
     58 C         144.4929  139.5655  163.8711 C.3     1  UNL1        0.0021
     59 C         145.4480  140.7161  163.9905 C.3     1  UNL1        0.0001
     60 C         143.9298  138.9270  165.1060 C.3     1  UNL1        0.0001
@<TRIPOS>BOND
     1    15    16    1
     2    16    17   am
     3    17    18    2
     4    17    19   am
     5    19     7    1
     6     7     8    1
     7     8     9    1
     8     9    10    1
     9    10    11   am
    10    11    12    2
    11    11     6    1
    12     6    22    1
    13    22    23    1
    14    23    24    1
    15    24    25    1
    16    25    26    1
    17     6     2    1
    18     2     3   am
    19     3     4    2
    20     3     1    1
    21     1    57    1
    22    57    58    1
    23    58    59    1
    24    58    60    1
    25     1    29    1
    26    29    30   am
    27    30    31    2
    28    30    33    1
    29    33    50    1
    30    50    51    1
    31    51    52   ar
    32    52    53   ar
    33    53    54   ar
    34    54    55   ar
    35    55    56   ar
    36    33    34    1
    37    34    35   am
    38    35    36    2
    39    35    38    1
    40    38    39    1
    41    39    41    1
    42    41    42    1
    43    42    43    1
    44    42    44    1
    45    44    45   ar
    46    45    46   ar
    47    46    47   ar
    48    47    48   ar
    49    48    49   ar
    50    10    13    1
    51    13    14    1
    52    14     7    1
    53    56    51   ar
    54    49    44   ar
    55    16    20    1
    56    19    21    1
    57    26    27    1
    58    26    28    1
    59     2     5    1
    60    29    32    1
    61    34    37    1
    62    39    40    1
@<TRIPOS>MOLECULE
*****
 60 62 0 0 0
SMALL
GASTEIGER

@<TRIPOS>ATOM
      1 C         140.2837  143.5554  158.9605 C.3     1  UNL1        0.1486
      2 N         141.3047  141.8429  157.2946 N.am    1  UNL1       -0.2970
      3 C         140.1878  142.7625  157.6908 C.2     1  UNL1        0.2406
      4 O         138.9750  142.8891  156.8173 O.2     1  UNL1       -0.2733
      5 H         142.1007  141.7598  157.8680 H       1  UNL1        0.1499
      6 C         141.2088  141.0500  156.0249 C.3     1  UNL1        0.1488
      7 C         143.1220  135.9978  155.7694 C.3     1  UNL1        0.0765
      8 C         141.6304  135.8734  155.8670 C.3     1  UNL1        0.0412
      9 C         140.7792  137.1053  155.9553 C.3     1  UNL1        0.0951
     10 N         141.4196  138.4617  155.9460 N.am    1  UNL1       -0.2781
     11 C         140.5684  139.6936  156.0343 C.2     1  UNL1        0.2435
     12 O         139.0768  139.5692  156.1319 O.2     1  UNL1       -0.2731
     13 C         142.9112  138.5861  155.8483 C.3     1  UNL1        0.0951
     14 C         143.7624  137.3542  155.7600 C.3     1  UNL1        0.0412
     15 C         145.2001  131.7941  158.0077 C.3     1  UNL1        0.1122
     16 N         145.0123  132.6640  156.8002 N.am    1  UNL1       -0.2872
     17 C         144.1611  133.8960  156.8885 C.2     1  UNL1        0.3008
     18 O         143.4978  134.2580  158.1843 O.2     1  UNL1       -0.2528
     19 N         143.9732  134.7659  155.6810 N.am    1  UNL1       -0.2905
     20 H         145.4476  132.4264  155.9497 H       1  UNL1        0.1510
     21 H         144.4085  134.5283  154.8306 H       1  UNL1        0.1509
     22 C         141.7534  141.6135  154.7459 C.3     1  UNL1        0.0290
     23 C         142.5819  142.8638  154.7699 C.3     1  UNL1        0.0036
     24 C         144.0771  142.7743  154.6907 C.3     1  UNL1        0.0169
     25 C         144.8792  142.5090  155.9302 C.3     1  UNL1        0.0651
     26 N         144.3339  142.8946  157.2733 N.3     1  UNL1       -0.3211
     27 H         144.2606  143.9103  157.3316 H       1  UNL1        0.1189
     28 H         144.9598  142.5564  158.0042 H       1  UNL1        0.1189
     29 N         140.4595  142.8510  160.2731 N.am    1  UNL1       -0.2970
     30 C         141.8368  142.5306  160.7738 C.2     1  UNL1        0.2410
     31 O         143.0381  142.9146  159.9619 O.2     1  UNL1       -0.2733
     32 H         139.6710  142.5990  160.8060 H       1  UNL1        0.1499
     33 C         142.0126  141.8262  162.0864 C.3     1  UNL1        0.1530
     34 N         142.3291  140.3602  162.1144 N.am    1  UNL1       -0.2969
     35 C         141.3099  139.3638  161.6471 C.2     1  UNL1        0.2389
     36 O         139.9742  139.8334  161.1518 O.2     1  UNL1       -0.2736
     37 H         143.2058  140.0521  162.4395 H       1  UNL1        0.1499
     38 C         141.6265  137.8979  161.6751 C.3     1  UNL1        0.1549
     39 N         141.0812  137.0337  162.7733 N.3     1  UNL1       -0.2895
     40 H         141.4465  136.0942  162.6175 H       1  UNL1        0.1237
     41 C         141.3626  137.3755  164.2064 C.3     1  UNL1        0.0733
     42 C         140.3522  138.1426  165.0067 C.3     1  UNL1        0.0381
     43 C         138.9270  137.6775  165.0591 C.3     1  UNL1        0.0061
     44 C         140.7668  139.3750  165.7547 C.ar    1  UNL1       -0.0212
     45 C         142.2152  139.7592  165.8228 C.ar    1  UNL1       -0.0042
     46 C         142.6299  140.9915  166.5707 C.ar    1  UNL1       -0.0003
     47 C         141.5961  141.8396  167.2506 C.ar    1  UNL1       -0.0000
     48 C         140.1478  141.4554  167.1825 C.ar    1  UNL1       -0.0003
     49 C         139.7332  140.2230  166.4345 C.ar    1  UNL1       -0.0042
     50 C         141.8718  142.5878  163.3710 C.3     1  UNL1        0.0553
     51 C         140.5140  143.0129  163.8460 C.ar    1  UNL1       -0.0200
     52 C         140.3552  144.2886  164.6189 C.ar    1  UNL1       -0.0042
     53 C         138.9974  144.7136  165.0939 C.ar    1  UNL1       -0.0003
     54 C         137.7984  143.8630  164.7961 C.ar    1  UNL1       -0.0000
     55 C         137.9572  142.5873  164.0232 C.ar    1  UNL1       -0.0003
     56 C         139.3150  142.1622  163.5481 C.ar    1  UNL1       -0.0042
     57 C         140.2038  145.0526  158.9176 C.3     1  UNL1        0.0290
     58 C         140.7348  145.7982  157.7293 C.3     1  UNL1        0.0021
     59 C         142.2123  145.8503  157.4755 C.3     1  UNL1        0.0001
     60 C         139.7884  146.4917  156.7948 C.3     1  UNL1        0.0001
@<TRIPOS>BOND
     1    15    16    1
     2    16    17   am
     3    17    18    2
     4    17    19   am
     5    19     7    1
     6     7     8    1
     7     8     9    1
     8     9    10    1
     9    10    11   am
    10    11    12    2
    11    11     6    1
    12     6    22    1
    13    22    23    1
    14    23    24    1
    15    24    25    1
    16    25    26    1
    17     6     2    1
    18     2     3   am
    19     3     4    2
    20     3     1    1
    21     1    57    1
    22    57    58    1
    23    58    59    1
    24    58    60    1
    25     1    29    1
    26    29    30   am
    27    30    31    2
    28    30    33    1
    29    33    50    1
    30    50    51    1
    31    51    52   ar
    32    52    53   ar
    33    53    54   ar
    34    54    55   ar
    35    55    56   ar
    36    33    34    1
    37    34    35   am
    38    35    36    2
    39    35    38    1
    40    38    39    1
    41    39    41    1
    42    41    42    1
    43    42    43    1
    44    42    44    1
    45    44    45   ar
    46    45    46   ar
    47    46    47   ar
    48    47    48   ar
    49    48    49   ar
    50    10    13    1
    51    13    14    1
    52    14     7    1
    53    56    51   ar
    54    49    44   ar
    55    16    20    1
    56    19    21    1
    57    26    27    1
    58    26    28    1
    59     2     5    1
    60    29    32    1
    61    34    37    1
    62    39    40    1
