@<TRIPOS>MOLECULE
*****
 33 36 0 0 0
SMALL
GASTEIGER

@<TRIPOS>ATOM
      1 N         139.3359  140.2534  161.2434 N.ar    1  UNL1       -0.1967
      2 N         138.7850  141.6485  161.2567 N.ar    1  UNL1       -0.1670
      3 C         138.2155  141.9090  162.6197 C.ar    1  UNL1        0.0805
      4 C         138.4144  140.6749  163.4488 C.ar    1  UNL1        0.0339
      5 C         138.0544  140.3506  164.8684 C.ar    1  UNL1        0.0141
      6 C         138.3869  139.0032  165.4374 C.ar    1  UNL1        0.0578
      7 CL        138.0270  138.6790  166.8571 Cl      1  UNL1       -0.0822
      8 C         139.0794  137.9799  164.5868 C.ar    1  UNL1        0.0129
      9 C         139.4393  138.3042  163.1672 C.ar    1  UNL1        0.0202
     10 C         139.1068  139.6516  162.5982 C.ar    1  UNL1        0.0871
     11 C         142.3623  136.7844  155.3557 C.3     1  UNL1        0.0137
     12 C         141.6988  137.4593  156.5195 C.3     1  UNL1        0.0932
     13 C         143.0906  137.9114  156.8488 C.3     1  UNL1        0.0137
     14 C         140.4457  136.8661  155.9470 C.2     1  UNL1        0.2302
     15 O         140.3554  136.0189  154.7125 O.2     1  UNL1       -0.2744
     16 N         139.2987  137.2689  156.8257 N.am    1  UNL1       -0.2692
     17 C         139.8430  138.1110  157.9414 C.ar    1  UNL1        0.1363
     18 N         139.1795  138.7859  159.1051 N.ar    1  UNL1       -0.1951
     19 C         139.9994  139.5784  160.0796 C.ar    1  UNL1        0.2553
     20 N         141.4827  139.6961  159.8903 N.ar    1  UNL1       -0.1957
     21 C         142.1462  139.0213  158.7266 C.ar    1  UNL1        0.1276
     22 N         143.6295  139.1390  158.5373 N.pl3   1  UNL1       -0.3427
     23 C         141.3263  138.2287  157.7521 C.ar    1  UNL1        0.0484
     24 H         138.3545  137.0236  156.6935 H       1  UNL1        0.1563
     25 H         144.1676  139.6591  159.1769 H       1  UNL1        0.1437
     26 H         144.0650  138.6960  157.7735 H       1  UNL1        0.1437
     27 C         137.5618  143.1804  163.0738 C.3     1  UNL1        0.0479
     28 C         138.2546  144.4949  162.8683 C.3     1  UNL1        0.0151
     29 C         139.3915  144.8913  163.7628 C.3     1  UNL1        0.1037
     30 C         139.5251  144.2750  165.1238 C.3     1  UNL1        0.3978
     31 F         139.6585  143.6588  166.4848 F       1  UNL1       -0.1700
     32 F         138.5045  145.2354  165.6588 F       1  UNL1       -0.1700
     33 F         140.5456  143.3147  164.5889 F       1  UNL1       -0.1700
@<TRIPOS>BOND
     1    11    12    1
     2    12    13    1
     3    12    14    1
     4    14    15    2
     5    14    16   am
     6    16    17    1
     7    17    18   ar
     8    18    19   ar
     9    19     1    1
    10     1     2   ar
    11     2     3   ar
    12     3    27    1
    13    27    28    1
    14    28    29    1
    15    29    30    1
    16    30    31    1
    17    30    32    1
    18    30    33    1
    19     3     4   ar
    20     4     5   ar
    21     5     6   ar
    22     6     7    1
    23     6     8   ar
    24     8     9   ar
    25     9    10   ar
    26    19    20   ar
    27    20    21   ar
    28    21    22    1
    29    21    23   ar
    30    23    12    1
    31    23    17   ar
    32    10     1   ar
    33    10     4   ar
    34    16    24    1
    35    22    25    1
    36    22    26    1
@<TRIPOS>MOLECULE
*****
 33 36 0 0 0
SMALL
GASTEIGER

@<TRIPOS>ATOM
      1 N         139.2055  139.8171  167.0526 N.ar    1  UNL1       -0.1967
      2 N         138.1810  139.3096  168.0237 N.ar    1  UNL1       -0.1670
      3 C         138.5203  139.8513  169.3807 C.ar    1  UNL1        0.0805
      4 C         139.7544  140.6936  169.2482 C.ar    1  UNL1        0.0339
      5 C         140.5473  141.4772  170.2519 C.ar    1  UNL1        0.0141
      6 C         141.7636  142.2395  169.8168 C.ar    1  UNL1        0.0578
      7 CL        142.5565  143.0231  170.8205 Cl      1  UNL1       -0.0822
      8 C         142.1871  142.2184  168.3779 C.ar    1  UNL1        0.0129
      9 C         141.3942  141.4349  167.3742 C.ar    1  UNL1        0.0202
     10 C         140.1778  140.6725  167.8094 C.ar    1  UNL1        0.0871
     11 C         139.1762  138.5259  159.6913 C.3     1  UNL1        0.0137
     12 C         139.1320  138.8218  161.1612 C.3     1  UNL1        0.0932
     13 C         140.3296  137.9204  161.2187 C.3     1  UNL1        0.0137
     14 C         137.9437  139.6613  160.7963 C.2     1  UNL1        0.2302
     15 O         137.3822  139.8427  159.4173 O.2     1  UNL1       -0.2744
     16 N         137.4154  140.2877  162.0528 N.am    1  UNL1       -0.2692
     17 C         138.2772  139.8353  163.1941 C.ar    1  UNL1        0.1363
     18 N         138.2330  140.1312  164.6639 N.ar    1  UNL1       -0.1951
     19 C         139.2497  139.5212  165.5827 C.ar    1  UNL1        0.2553
     20 N         140.3106  138.6152  165.0316 N.ar    1  UNL1       -0.1957
     21 C         140.3548  138.3193  163.5618 C.ar    1  UNL1        0.1276
     22 N         141.4158  137.4133  163.0108 N.pl3   1  UNL1       -0.3427
     23 C         139.3382  138.9293  162.6431 C.ar    1  UNL1        0.0484
     24 H         136.6393  140.8900  162.1170 H       1  UNL1        0.1563
     25 H         142.0831  137.0129  163.6138 H       1  UNL1        0.1437
     26 H         141.4448  137.2191  162.0461 H       1  UNL1        0.1437
     27 C         137.7591  139.5956  170.6477 C.3     1  UNL1        0.0479
     28 C         136.6695  138.5651  170.6730 C.3     1  UNL1        0.0151
     29 C         135.7066  138.5198  171.8222 C.3     1  UNL1        0.1037
     30 C         135.6518  137.3102  172.7075 C.3     1  UNL1        0.3978
     31 F         135.5971  136.1005  173.5928 F       1  UNL1       -0.1700
     32 F         137.0555  136.9580  172.3130 F       1  UNL1       -0.1700
     33 F         134.2481  137.6624  173.1019 F       1  UNL1       -0.1700
@<TRIPOS>BOND
     1    11    12    1
     2    12    13    1
     3    12    14    1
     4    14    15    2
     5    14    16   am
     6    16    17    1
     7    17    18   ar
     8    18    19   ar
     9    19     1    1
    10     1     2   ar
    11     2     3   ar
    12     3    27    1
    13    27    28    1
    14    28    29    1
    15    29    30    1
    16    30    31    1
    17    30    32    1
    18    30    33    1
    19     3     4   ar
    20     4     5   ar
    21     5     6   ar
    22     6     7    1
    23     6     8   ar
    24     8     9   ar
    25     9    10   ar
    26    19    20   ar
    27    20    21   ar
    28    21    22    1
    29    21    23   ar
    30    23    12    1
    31    23    17   ar
    32    10     1   ar
    33    10     4   ar
    34    16    24    1
    35    22    25    1
    36    22    26    1
@<TRIPOS>MOLECULE
*****
 33 36 0 0 0
SMALL
GASTEIGER

@<TRIPOS>ATOM
      1 N         141.4455  141.8621  164.6384 N.ar    1  UNL1       -0.1967
      2 N         142.4086  142.0459  165.7736 N.ar    1  UNL1       -0.1670
      3 C         141.8782  141.2936  166.9579 C.ar    1  UNL1        0.0805
      4 C         140.5873  140.6448  166.5546 C.ar    1  UNL1        0.0339
      5 C         139.6207  139.7795  167.3075 C.ar    1  UNL1        0.0141
      6 C         138.3868  139.2656  166.6270 C.ar    1  UNL1        0.0578
      7 CL        137.4201  138.4002  167.3800 Cl      1  UNL1       -0.0822
      8 C         138.1193  139.6170  165.1934 C.ar    1  UNL1        0.0129
      9 C         139.0859  140.4823  164.4405 C.ar    1  UNL1        0.0202
     10 C         140.3199  140.9962  165.1211 C.ar    1  UNL1        0.0871
     11 C         141.8788  144.9235  157.8341 C.3     1  UNL1        0.0137
     12 C         141.7405  144.3432  159.2104 C.3     1  UNL1        0.0932
     13 C         142.9767  143.5780  158.8412 C.3     1  UNL1        0.0137
     14 C         140.5332  145.2296  159.2919 C.2     1  UNL1        0.2302
     15 O         140.0388  146.1473  158.2133 O.2     1  UNL1       -0.2744
     16 N         139.9072  145.0372  160.6414 N.am    1  UNL1       -0.2692
     17 C         140.7275  144.0319  161.3939 C.ar    1  UNL1        0.1363
     18 N         140.5892  143.4517  162.7702 N.ar    1  UNL1       -0.1951
     19 C         141.5839  142.4425  163.2620 C.ar    1  UNL1        0.2553
     20 N         142.7170  142.0135  162.3777 N.ar    1  UNL1       -0.1957
     21 C         142.8553  142.5937  161.0014 C.ar    1  UNL1        0.1276
     22 N         143.9884  142.1648  160.1170 N.pl3   1  UNL1       -0.3427
     23 C         141.8606  143.6029  160.5095 C.ar    1  UNL1        0.0484
     24 H         139.0996  145.4911  160.9746 H       1  UNL1        0.1563
     25 H         144.6413  141.5024  160.4399 H       1  UNL1        0.1437
     26 H         144.0792  142.5456  159.2137 H       1  UNL1        0.1437
     27 C         142.5251  141.2055  168.3084 C.3     1  UNL1        0.0479
     28 C         142.9141  142.4577  169.0368 C.3     1  UNL1        0.0151
     29 C         141.9267  143.1389  169.9373 C.3     1  UNL1        0.1037
     30 C         140.5393  142.5874  170.0825 C.3     1  UNL1        0.3978
     31 F         139.1520  142.0359  170.2278 F       1  UNL1       -0.1700
     32 F         140.9901  141.7609  171.2503 F       1  UNL1       -0.1700
     33 F         140.0886  143.4139  168.9148 F       1  UNL1       -0.1700
@<TRIPOS>BOND
     1    11    12    1
     2    12    13    1
     3    12    14    1
     4    14    15    2
     5    14    16   am
     6    16    17    1
     7    17    18   ar
     8    18    19   ar
     9    19     1    1
    10     1     2   ar
    11     2     3   ar
    12     3    27    1
    13    27    28    1
    14    28    29    1
    15    29    30    1
    16    30    31    1
    17    30    32    1
    18    30    33    1
    19     3     4   ar
    20     4     5   ar
    21     5     6   ar
    22     6     7    1
    23     6     8   ar
    24     8     9   ar
    25     9    10   ar
    26    19    20   ar
    27    20    21   ar
    28    21    22    1
    29    21    23   ar
    30    23    12    1
    31    23    17   ar
    32    10     1   ar
    33    10     4   ar
    34    16    24    1
    35    22    25    1
    36    22    26    1
@<TRIPOS>MOLECULE
*****
 33 36 0 0 0
SMALL
GASTEIGER

@<TRIPOS>ATOM
      1 N         139.1524  140.3308  160.9792 N.ar    1  UNL1       -0.1967
      2 N         138.6822  141.7531  161.0561 N.ar    1  UNL1       -0.1670
      3 C         138.2137  142.0113  162.4574 C.ar    1  UNL1        0.0805
      4 C         138.3943  140.7485  163.2466 C.ar    1  UNL1        0.0339
      5 C         138.1055  140.4102  164.6791 C.ar    1  UNL1        0.0141
      6 C         138.3968  139.0334  165.1980 C.ar    1  UNL1        0.0578
      7 CL        138.1079  138.6951  166.6306 Cl      1  UNL1       -0.0822
      8 C         138.9770  137.9947  164.2844 C.ar    1  UNL1        0.0129
      9 C         139.2658  138.3330  162.8519 C.ar    1  UNL1        0.0202
     10 C         138.9745  139.7099  162.3330 C.ar    1  UNL1        0.0871
     11 C         142.1667  136.8889  155.0695 C.3     1  UNL1        0.0137
     12 C         141.6153  137.5707  156.2866 C.3     1  UNL1        0.0932
     13 C         140.3829  137.7290  155.4464 C.3     1  UNL1        0.0137
     14 C         142.9631  137.2698  156.8723 C.2     1  UNL1        0.2302
     15 O         144.0891  136.5640  156.1767 O.2     1  UNL1       -0.2744
     16 N         142.9870  137.7987  158.2757 N.am    1  UNL1       -0.2692
     17 C         141.6541  138.4265  158.5574 C.ar    1  UNL1        0.1363
     18 N         141.1028  139.1082  159.7744 N.ar    1  UNL1       -0.1951
     19 C         139.7038  139.6490  159.7621 C.ar    1  UNL1        0.2553
     20 N         138.8560  139.5080  158.5327 N.ar    1  UNL1       -0.1957
     21 C         139.4073  138.8263  157.3156 C.ar    1  UNL1        0.1276
     22 N         138.5596  138.6854  156.0862 N.pl3   1  UNL1       -0.3427
     23 C         140.8064  138.2855  157.3280 C.ar    1  UNL1        0.0484
     24 H         143.7446  137.7435  158.9021 H       1  UNL1        0.1563
     25 H         137.6413  139.0403  156.0781 H       1  UNL1        0.1437
     26 H         138.9214  138.2379  155.2874 H       1  UNL1        0.1437
     27 C         137.6615  143.3051  162.9781 C.3     1  UNL1        0.0479
     28 C         138.4606  144.5678  162.8486 C.3     1  UNL1        0.0151
     29 C         139.6371  144.8064  163.7480 C.3     1  UNL1        0.1037
     30 C         139.6903  144.1601  165.1006 C.3     1  UNL1        0.3978
     31 F         139.7436  143.5136  166.4531 F       1  UNL1       -0.1700
     32 F         140.6444  143.1308  164.5711 F       1  UNL1       -0.1700
     33 F         138.7362  145.1893  165.6300 F       1  UNL1       -0.1700
@<TRIPOS>BOND
     1    11    12    1
     2    12    13    1
     3    12    14    1
     4    14    15    2
     5    14    16   am
     6    16    17    1
     7    17    18   ar
     8    18    19   ar
     9    19     1    1
    10     1     2   ar
    11     2     3   ar
    12     3    27    1
    13    27    28    1
    14    28    29    1
    15    29    30    1
    16    30    31    1
    17    30    32    1
    18    30    33    1
    19     3     4   ar
    20     4     5   ar
    21     5     6   ar
    22     6     7    1
    23     6     8   ar
    24     8     9   ar
    25     9    10   ar
    26    19    20   ar
    27    20    21   ar
    28    21    22    1
    29    21    23   ar
    30    23    12    1
    31    23    17   ar
    32    10     1   ar
    33    10     4   ar
    34    16    24    1
    35    22    25    1
    36    22    26    1
@<TRIPOS>MOLECULE
*****
 33 36 0 0 0
SMALL
GASTEIGER

@<TRIPOS>ATOM
      1 N         140.7880  141.5017  164.6474 N.ar    1  UNL1       -0.1967
      2 N         139.9659  141.8313  165.8580 N.ar    1  UNL1       -0.1670
      3 C         140.4682  140.9986  167.0001 C.ar    1  UNL1        0.0805
      4 C         141.6007  140.1544  166.4953 C.ar    1  UNL1        0.0339
      5 C         142.4776  139.1428  167.1718 C.ar    1  UNL1        0.0141
      6 C         143.5520  138.4421  166.3944 C.ar    1  UNL1        0.0578
      7 CL        144.4289  137.4304  167.0710 Cl      1  UNL1       -0.0822
      8 C         143.7496  138.7530  164.9403 C.ar    1  UNL1        0.0129
      9 C         142.8728  139.7646  164.2638 C.ar    1  UNL1        0.0202
     10 C         141.7983  140.4653  165.0413 C.ar    1  UNL1        0.0871
     11 C         140.2309  144.6851  157.9085 C.3     1  UNL1        0.0137
     12 C         140.3911  144.0839  159.2734 C.3     1  UNL1        0.0932
     13 C         139.2240  143.2351  158.8643 C.3     1  UNL1        0.0137
     14 C         141.5247  145.0584  159.3972 C.2     1  UNL1        0.2302
     15 O         141.9643  146.0373  158.3492 O.2     1  UNL1       -0.2744
     16 N         142.1415  144.8820  160.7531 N.am    1  UNL1       -0.2692
     17 C         141.3892  143.7985  161.4673 C.ar    1  UNL1        0.1363
     18 N         141.5494  143.1973  162.8321 N.ar    1  UNL1       -0.1951
     19 C         140.6278  142.1029  163.2825 C.ar    1  UNL1        0.2553
     20 N         139.5459  141.6097  162.3679 N.ar    1  UNL1       -0.1957
     21 C         139.3857  142.2108  161.0031 C.ar    1  UNL1        0.1276
     22 N         138.3039  141.7176  160.0886 N.pl3   1  UNL1       -0.3427
     23 C         140.3073  143.3052  160.5528 C.ar    1  UNL1        0.0484
     24 H         142.9060  145.3884  161.1114 H       1  UNL1        0.1563
     25 H         137.6990  140.9993  160.3842 H       1  UNL1        0.1437
     26 H         138.1987  142.1122  159.1928 H       1  UNL1        0.1437
     27 C         139.9321  141.0085  168.4010 C.3     1  UNL1        0.0479
     28 C         140.4826  141.9744  169.4079 C.3     1  UNL1        0.0151
     29 C         141.6320  142.8658  169.0416 C.3     1  UNL1        0.1037
     30 C         143.0197  142.5265  169.4991 C.3     1  UNL1        0.3978
     31 F         144.4073  142.1873  169.9568 F       1  UNL1       -0.1700
     32 F         142.5788  142.6498  170.9276 F       1  UNL1       -0.1700
     33 F         143.4606  142.4033  168.0707 F       1  UNL1       -0.1700
@<TRIPOS>BOND
     1    11    12    1
     2    12    13    1
     3    12    14    1
     4    14    15    2
     5    14    16   am
     6    16    17    1
     7    17    18   ar
     8    18    19   ar
     9    19     1    1
    10     1     2   ar
    11     2     3   ar
    12     3    27    1
    13    27    28    1
    14    28    29    1
    15    29    30    1
    16    30    31    1
    17    30    32    1
    18    30    33    1
    19     3     4   ar
    20     4     5   ar
    21     5     6   ar
    22     6     7    1
    23     6     8   ar
    24     8     9   ar
    25     9    10   ar
    26    19    20   ar
    27    20    21   ar
    28    21    22    1
    29    21    23   ar
    30    23    12    1
    31    23    17   ar
    32    10     1   ar
    33    10     4   ar
    34    16    24    1
    35    22    25    1
    36    22    26    1
@<TRIPOS>MOLECULE
*****
 33 36 0 0 0
SMALL
GASTEIGER

@<TRIPOS>ATOM
      1 N         141.2620  141.7025  164.4839 N.ar    1  UNL1       -0.1967
      2 N         141.6034  142.5385  165.6817 N.ar    1  UNL1       -0.1670
      3 C         140.8409  141.9997  166.8557 C.ar    1  UNL1        0.0805
      4 C         140.0283  140.8305  166.3835 C.ar    1  UNL1        0.0339
      5 C         139.0850  139.9095  167.0988 C.ar    1  UNL1        0.0141
      6 C         138.4020  138.8048  166.3485 C.ar    1  UNL1        0.0578
      7 CL        137.4587  137.8837  167.0640 Cl      1  UNL1       -0.0822
      8 C         138.6623  138.6211  164.8827 C.ar    1  UNL1        0.0129
      9 C         139.6056  139.5421  164.1673 C.ar    1  UNL1        0.0202
     10 C         140.2886  140.6469  164.9177 C.ar    1  UNL1        0.0871
     11 C         144.0306  142.3343  157.5707 C.3     1  UNL1        0.0137
     12 C         143.4928  142.1475  158.9585 C.3     1  UNL1        0.0932
     13 C         143.1105  143.5927  158.8354 C.3     1  UNL1        0.0137
     14 C         143.9876  140.7413  158.7914 C.2     1  UNL1        0.2302
     15 O         144.6738  140.1863  157.5785 O.2     1  UNL1       -0.2744
     16 N         143.6757  139.9877  160.0503 N.am    1  UNL1       -0.2692
     17 C         142.9882  140.9280  160.9953 C.ar    1  UNL1        0.1363
     18 N         142.4505  140.7412  162.3831 N.ar    1  UNL1       -0.1951
     19 C         141.7998  141.8892  163.0961 C.ar    1  UNL1        0.2553
     20 N         141.6867  143.2241  162.4213 N.ar    1  UNL1       -0.1957
     21 C         142.2244  143.4109  161.0336 C.ar    1  UNL1        0.1276
     22 N         142.1114  144.7458  160.3588 N.pl3   1  UNL1       -0.3427
     23 C         142.8752  142.2629  160.3206 C.ar    1  UNL1        0.0484
     24 H         143.8855  139.0418  160.2255 H       1  UNL1        0.1563
     25 H         141.6843  145.4993  160.8268 H       1  UNL1        0.1437
     26 H         142.4643  144.8684  159.4479 H       1  UNL1        0.1437
     27 C         140.8835  142.5358  168.2559 C.3     1  UNL1        0.0479
     28 C         142.1704  142.5196  169.0264 C.3     1  UNL1        0.0151
     29 C         143.0244  141.2865  169.0340 C.3     1  UNL1        0.1037
     30 C         142.4785  139.9995  169.5777 C.3     1  UNL1        0.3978
     31 F         141.9326  138.7125  170.1215 F       1  UNL1       -0.1700
     32 F         142.1874  140.6753  170.8848 F       1  UNL1       -0.1700
     33 F         142.7697  139.3237  168.2706 F       1  UNL1       -0.1700
@<TRIPOS>BOND
     1    11    12    1
     2    12    13    1
     3    12    14    1
     4    14    15    2
     5    14    16   am
     6    16    17    1
     7    17    18   ar
     8    18    19   ar
     9    19     1    1
    10     1     2   ar
    11     2     3   ar
    12     3    27    1
    13    27    28    1
    14    28    29    1
    15    29    30    1
    16    30    31    1
    17    30    32    1
    18    30    33    1
    19     3     4   ar
    20     4     5   ar
    21     5     6   ar
    22     6     7    1
    23     6     8   ar
    24     8     9   ar
    25     9    10   ar
    26    19    20   ar
    27    20    21   ar
    28    21    22    1
    29    21    23   ar
    30    23    12    1
    31    23    17   ar
    32    10     1   ar
    33    10     4   ar
    34    16    24    1
    35    22    25    1
    36    22    26    1
@<TRIPOS>MOLECULE
*****
 33 36 0 0 0
SMALL
GASTEIGER

@<TRIPOS>ATOM
      1 N         140.5818  142.3490  164.4606 N.ar    1  UNL1       -0.1967
      2 N         140.8873  143.0695  165.7403 N.ar    1  UNL1       -0.1670
      3 C         140.3292  142.2597  166.8728 C.ar    1  UNL1        0.0805
      4 C         139.6786  141.0387  166.2930 C.ar    1  UNL1        0.0339
      5 C         138.9643  139.8838  166.9300 C.ar    1  UNL1        0.0141
      6 C         138.4061  138.7841  166.0763 C.ar    1  UNL1        0.0578
      7 CL        137.6917  137.6291  166.7133 Cl      1  UNL1       -0.0822
      8 C         138.5622  138.8393  164.5854 C.ar    1  UNL1        0.0129
      9 C         139.2766  139.9942  163.9484 C.ar    1  UNL1        0.0202
     10 C         139.8348  141.0939  164.8022 C.ar    1  UNL1        0.0871
     11 C         142.2066  144.8060  157.5918 C.3     1  UNL1        0.0137
     12 C         141.8310  144.3512  158.9710 C.3     1  UNL1        0.0932
     13 C         143.0419  143.4754  158.8414 C.3     1  UNL1        0.0137
     14 C         140.6987  145.3220  158.8122 C.2     1  UNL1        0.2302
     15 O         140.4349  146.1801  157.6104 O.2     1  UNL1       -0.2744
     16 N         139.8764  145.2842  160.0661 N.am    1  UNL1       -0.2692
     17 C         140.5005  144.2899  160.9999 C.ar    1  UNL1        0.1363
     18 N         140.1249  143.8352  162.3791 N.ar    1  UNL1       -0.1951
     19 C         140.9574  142.8038  163.0814 C.ar    1  UNL1        0.2553
     20 N         142.1654  142.2272  162.4045 N.ar    1  UNL1       -0.1957
     21 C         142.5410  142.6819  161.0254 C.ar    1  UNL1        0.1276
     22 N         143.7491  142.1053  160.3485 N.pl3   1  UNL1       -0.3427
     23 C         141.7086  143.7133  160.3231 C.ar    1  UNL1        0.0484
     24 H         139.0688  145.8181  160.2449 H       1  UNL1        0.1563
     25 H         144.2954  141.4284  160.8094 H       1  UNL1        0.1437
     26 H         143.9956  142.4038  159.4433 H       1  UNL1        0.1437
     27 C         140.4077  142.6094  168.3293 C.3     1  UNL1        0.0479
     28 C         141.4741  142.0002  169.1905 C.3     1  UNL1        0.0151
     29 C         142.2257  142.8528  170.1692 C.3     1  UNL1        0.1037
     30 C         143.7257  142.8477  170.1711 C.3     1  UNL1        0.3978
     31 F         145.2257  142.8426  170.1731 F       1  UNL1       -0.1700
     32 F         143.7282  143.9595  171.1781 F       1  UNL1       -0.1700
     33 F         143.7233  141.7359  169.1642 F       1  UNL1       -0.1700
@<TRIPOS>BOND
     1    11    12    1
     2    12    13    1
     3    12    14    1
     4    14    15    2
     5    14    16   am
     6    16    17    1
     7    17    18   ar
     8    18    19   ar
     9    19     1    1
    10     1     2   ar
    11     2     3   ar
    12     3    27    1
    13    27    28    1
    14    28    29    1
    15    29    30    1
    16    30    31    1
    17    30    32    1
    18    30    33    1
    19     3     4   ar
    20     4     5   ar
    21     5     6   ar
    22     6     7    1
    23     6     8   ar
    24     8     9   ar
    25     9    10   ar
    26    19    20   ar
    27    20    21   ar
    28    21    22    1
    29    21    23   ar
    30    23    12    1
    31    23    17   ar
    32    10     1   ar
    33    10     4   ar
    34    16    24    1
    35    22    25    1
    36    22    26    1
@<TRIPOS>MOLECULE
*****
 33 36 0 0 0
SMALL
GASTEIGER

@<TRIPOS>ATOM
      1 N         141.3050  142.3998  164.6734 N.ar    1  UNL1       -0.1967
      2 N         140.5675  142.8403  165.9031 N.ar    1  UNL1       -0.1670
      3 C         140.9018  141.8860  167.0109 C.ar    1  UNL1        0.0805
      4 C         141.8459  140.8555  166.4659 C.ar    1  UNL1        0.0339
      5 C         142.5109  139.6691  167.0985 C.ar    1  UNL1        0.0141
      6 C         143.4249  138.8003  166.2865 C.ar    1  UNL1        0.0578
      7 CL        144.0899  137.6138  166.9191 Cl      1  UNL1       -0.0822
      8 C         143.6741  139.1178  164.8417 C.ar    1  UNL1        0.0129
      9 C         143.0092  140.3043  164.2092 C.ar    1  UNL1        0.0202
     10 C         142.0950  141.1731  165.0213 C.ar    1  UNL1        0.0871
     11 C         141.3023  145.5345  157.8888 C.3     1  UNL1        0.0137
     12 C         141.3471  144.8657  159.2307 C.3     1  UNL1        0.0932
     13 C         140.2882  145.8658  159.5892 C.3     1  UNL1        0.0137
     14 C         142.3967  144.0054  158.5917 C.2     1  UNL1        0.2302
     15 O         142.8879  144.1169  157.1788 O.2     1  UNL1       -0.2744
     16 N         142.8687  143.0141  159.6136 N.am    1  UNL1       -0.2692
     17 C         142.1110  143.2617  160.8843 C.ar    1  UNL1        0.1363
     18 N         142.1558  142.5929  162.2262 N.ar    1  UNL1       -0.1951
     19 C         141.2602  143.0685  163.3314 C.ar    1  UNL1        0.2553
     20 N         140.3198  144.2129  163.0948 N.ar    1  UNL1       -0.1957
     21 C         140.2749  144.8817  161.7529 C.ar    1  UNL1        0.1276
     22 N         139.3345  146.0260  161.5162 N.pl3   1  UNL1       -0.3427
     23 C         141.1705  144.4060  160.6476 C.ar    1  UNL1        0.0484
     24 H         143.5554  142.3224  159.4748 H       1  UNL1        0.1563
     25 H         138.7467  146.3382  162.2417 H       1  UNL1        0.1437
     26 H         139.3051  146.4650  160.6355 H       1  UNL1        0.1437
     27 C         140.3831  141.9506  168.4169 C.3     1  UNL1        0.0479
     28 C         140.6890  143.1423  169.2750 C.3     1  UNL1        0.0151
     29 C         141.9912  143.2188  170.0156 C.3     1  UNL1        0.1037
     30 C         142.8637  142.0037  170.1259 C.3     1  UNL1        0.3978
     31 F         143.7361  140.7885  170.2364 F       1  UNL1       -0.1700
     32 F         142.0565  141.5307  171.2985 F       1  UNL1       -0.1700
     33 F         143.6708  142.4767  168.9535 F       1  UNL1       -0.1700
@<TRIPOS>BOND
     1    11    12    1
     2    12    13    1
     3    12    14    1
     4    14    15    2
     5    14    16   am
     6    16    17    1
     7    17    18   ar
     8    18    19   ar
     9    19     1    1
    10     1     2   ar
    11     2     3   ar
    12     3    27    1
    13    27    28    1
    14    28    29    1
    15    29    30    1
    16    30    31    1
    17    30    32    1
    18    30    33    1
    19     3     4   ar
    20     4     5   ar
    21     5     6   ar
    22     6     7    1
    23     6     8   ar
    24     8     9   ar
    25     9    10   ar
    26    19    20   ar
    27    20    21   ar
    28    21    22    1
    29    21    23   ar
    30    23    12    1
    31    23    17   ar
    32    10     1   ar
    33    10     4   ar
    34    16    24    1
    35    22    25    1
    36    22    26    1
@<TRIPOS>MOLECULE
*****
 33 36 0 0 0
SMALL
GASTEIGER

@<TRIPOS>ATOM
      1 N         140.5400  142.4294  164.5995 N.ar    1  UNL1       -0.1967
      2 N         140.9414  143.0761  165.8921 N.ar    1  UNL1       -0.1670
      3 C         140.4296  142.2238  167.0153 C.ar    1  UNL1        0.0805
      4 C         139.7119  141.0504  166.4169 C.ar    1  UNL1        0.0339
      5 C         139.0050  139.8826  167.0386 C.ar    1  UNL1        0.0141
      6 C         138.3663  138.8420  166.1674 C.ar    1  UNL1        0.0578
      7 CL        137.6594  137.6742  166.7892 Cl      1  UNL1       -0.0822
      8 C         138.4345  138.9691  164.6743 C.ar    1  UNL1        0.0129
      9 C         139.1414  140.1369  164.0526 C.ar    1  UNL1        0.0202
     10 C         139.7801  141.1775  164.9239 C.ar    1  UNL1        0.0871
     11 C         142.2695  144.7668  157.7145 C.3     1  UNL1        0.0137
     12 C         141.9645  144.2519  159.0900 C.3     1  UNL1        0.0932
     13 C         140.9849  145.3872  159.1269 C.3     1  UNL1        0.0137
     14 C         143.0078  143.2242  158.7655 C.2     1  UNL1        0.2302
     15 O         143.7804  143.1264  157.4835 O.2     1  UNL1       -0.2744
     16 N         143.1429  142.3115  159.9482 N.am    1  UNL1       -0.2692
     17 C         142.1831  142.7750  161.0036 C.ar    1  UNL1        0.1363
     18 N         141.8782  142.2601  162.3790 N.ar    1  UNL1       -0.1951
     19 C         140.8449  142.9444  163.2240 C.ar    1  UNL1        0.2553
     20 N         140.1166  144.1437  162.6936 N.ar    1  UNL1       -0.1957
     21 C         140.4215  144.6586  161.3182 C.ar    1  UNL1        0.1276
     22 N         139.6932  145.8579  160.7878 N.pl3   1  UNL1       -0.3427
     23 C         141.4548  143.9743  160.4732 C.ar    1  UNL1        0.0484
     24 H         143.7542  141.5430  160.0192 H       1  UNL1        0.1563
     25 H         139.0151  146.3070  161.3424 H       1  UNL1        0.1437
     26 H         139.8933  146.1959  159.8851 H       1  UNL1        0.1437
     27 C         140.6048  142.4969  168.4798 C.3     1  UNL1        0.0479
     28 C         141.3713  141.5329  169.3360 C.3     1  UNL1        0.0151
     29 C         142.7051  141.0208  168.8793 C.3     1  UNL1        0.1037
     30 C         142.7862  139.7700  168.0553 C.3     1  UNL1        0.3978
     31 F         142.8673  138.5193  167.2312 F       1  UNL1       -0.1700
     32 F         143.1335  140.5885  166.8472 F       1  UNL1       -0.1700
     33 F         142.4390  138.9516  169.2634 F       1  UNL1       -0.1700
@<TRIPOS>BOND
     1    11    12    1
     2    12    13    1
     3    12    14    1
     4    14    15    2
     5    14    16   am
     6    16    17    1
     7    17    18   ar
     8    18    19   ar
     9    19     1    1
    10     1     2   ar
    11     2     3   ar
    12     3    27    1
    13    27    28    1
    14    28    29    1
    15    29    30    1
    16    30    31    1
    17    30    32    1
    18    30    33    1
    19     3     4   ar
    20     4     5   ar
    21     5     6   ar
    22     6     7    1
    23     6     8   ar
    24     8     9   ar
    25     9    10   ar
    26    19    20   ar
    27    20    21   ar
    28    21    22    1
    29    21    23   ar
    30    23    12    1
    31    23    17   ar
    32    10     1   ar
    33    10     4   ar
    34    16    24    1
    35    22    25    1
    36    22    26    1
