@<TRIPOS>MOLECULE
*****
 39 43 0 0 0
SMALL
GASTEIGER

@<TRIPOS>ATOM
      1 N         143.7538  140.0786  161.4641 N.ar    1  UNL1       -0.3123
      2 C         143.7397  139.5948  160.0444 C.ar    1  UNL1        0.0961
      3 C         142.5215  138.7395  159.8583 C.ar    1  UNL1        0.0997
      4 N         141.7828  138.6947  161.1630 N.ar    1  UNL1       -0.2309
      5 C         142.5444  139.5223  162.1554 C.ar    1  UNL1        0.1200
      6 C         142.1138  138.0500  158.5900 C.ar    1  UNL1        0.0193
      7 C         140.8863  138.4985  157.8537 C.ar    1  UNL1        0.0038
      8 C         140.4786  137.8090  156.5856 C.ar    1  UNL1        0.0296
      9 C         141.2983  136.6709  156.0537 C.ar    1  UNL1        0.1440
     10 F         140.8905  135.9814  154.7854 F       1  UNL1       -0.2042
     11 C         142.5258  136.2224  156.7900 C.ar    1  UNL1        0.0988
     12 C         142.9335  136.9119  158.0581 C.ar    1  UNL1        0.0077
     13 C         143.3455  135.0843  156.2581 C.3     1  UNL1        0.4207
     14 F         144.1652  133.9463  155.7262 F       1  UNL1       -0.1658
     15 F         144.3421  136.0601  155.7061 F       1  UNL1       -0.1658
     16 F         142.3489  134.1086  156.8100 F       1  UNL1       -0.1658
     17 C         142.1634  139.7532  163.5878 C.3     1  UNL1        0.0603
     18 C         142.4439  138.6993  164.6177 C.3     1  UNL1        0.0290
     19 C         142.0630  138.9302  166.0500 C.3     1  UNL1        0.0926
     20 N         141.4015  140.2149  166.4524 N.pl3   1  UNL1       -0.2934
     21 C         141.1210  141.2688  165.4225 C.3     1  UNL1        0.0926
     22 C         141.5019  141.0379  163.9903 C.3     1  UNL1        0.0290
     23 C         141.0206  140.4457  167.8848 C.ar    1  UNL1        0.1320
     24 N         142.0025  141.0712  168.8305 N.ar    1  UNL1       -0.2092
     25 C         141.6215  141.3021  170.2629 C.ar    1  UNL1        0.2012
     26 N         140.2586  140.9074  170.7494 N.ar    1  UNL1       -0.2097
     27 C         139.2766  140.2819  169.8037 C.ar    1  UNL1        0.1257
     28 N         137.9137  139.8872  170.2902 N.pl3   1  UNL1       -0.3428
     29 C         139.6576  140.0510  168.3713 C.ar    1  UNL1        0.0402
     30 H         137.6637  140.0387  171.2303 H       1  UNL1        0.1437
     31 H         137.2692  139.4766  169.6695 H       1  UNL1        0.1437
     32 C         138.6757  139.4255  167.4255 C.3     1  UNL1        0.0278
     33 C         138.0168  139.3811  166.0787 C.3     1  UNL1        0.0049
     34 C         137.6337  138.3865  167.1342 C.3     1  UNL1        0.0049
     35 C         144.7946  140.9634  162.0837 C.3     1  UNL1        0.1245
     36 C         144.6782  142.4543  161.9661 C.3     1  UNL1        0.0970
     37 C         144.7350  142.7512  164.5465 C.3     1  UNL1        0.0897
     38 N         144.3997  143.2833  163.1847 N.3     1  UNL1       -0.2687
     39 C         143.7858  144.6444  163.0416 C.3     1  UNL1        0.0897
@<TRIPOS>BOND
     1    37    38    1
     2    38    39    1
     3    38    36    1
     4    36    35    1
     5    35     1    1
     6     1     2   ar
     7     2     3   ar
     8     3     6    1
     9     6     7   ar
    10     7     8   ar
    11     8     9   ar
    12     9    10    1
    13     9    11   ar
    14    11    13    1
    15    13    14    1
    16    13    15    1
    17    13    16    1
    18    11    12   ar
    19     3     4   ar
    20     4     5   ar
    21     5    17    1
    22    17    18    1
    23    18    19    1
    24    19    20    1
    25    20    23    1
    26    23    24   ar
    27    24    25   ar
    28    25    26   ar
    29    26    27   ar
    30    27    28    1
    31    27    29   ar
    32    29    32    1
    33    32    33    1
    34    33    34    1
    35    20    21    1
    36    21    22    1
    37     5     1   ar
    38    22    17    1
    39    12     6   ar
    40    29    23   ar
    41    34    32    1
    42    28    30    1
    43    28    31    1
@<TRIPOS>MOLECULE
*****
 39 43 0 0 0
SMALL
GASTEIGER

@<TRIPOS>ATOM
      1 N         140.1145  138.6626  163.4961 N.ar    1  UNL1       -0.3123
      2 C         139.7830  138.7627  164.9556 C.ar    1  UNL1        0.0961
      3 C         140.7701  139.6956  165.5923 C.ar    1  UNL1        0.0997
      4 N         141.7117  140.1720  164.5264 N.ar    1  UNL1       -0.2309
      5 C         141.3066  139.5337  163.2309 C.ar    1  UNL1        0.1200
      6 C         140.8088  140.0838  167.0408 C.ar    1  UNL1        0.0193
      7 C         139.5980  139.8840  167.9033 C.ar    1  UNL1        0.0038
      8 C         139.6368  140.2722  169.3517 C.ar    1  UNL1        0.0296
      9 C         140.8862  140.8601  169.9374 C.ar    1  UNL1        0.1440
     10 F         140.9249  141.2483  171.3859 F       1  UNL1       -0.2042
     11 C         142.0970  141.0599  169.0749 C.ar    1  UNL1        0.0988
     12 C         142.0583  140.6717  167.6265 C.ar    1  UNL1        0.0077
     13 C         143.3465  141.6478  169.6606 C.3     1  UNL1        0.4207
     14 F         144.5960  142.2358  170.2464 F       1  UNL1       -0.1658
     15 F         143.1566  142.8809  168.8279 F       1  UNL1       -0.1658
     16 F         143.5364  140.4147  170.4933 F       1  UNL1       -0.1658
     17 C         141.9759  139.7316  161.9031 C.3     1  UNL1        0.0603
     18 C         143.1961  138.9330  161.5519 C.3     1  UNL1        0.0290
     19 C         143.8655  139.1309  160.2242 C.3     1  UNL1        0.0926
     20 N         143.3146  140.1274  159.2478 N.pl3   1  UNL1       -0.2934
     21 C         142.0944  140.9261  159.5990 C.3     1  UNL1        0.0926
     22 C         141.4251  140.7281  160.9266 C.3     1  UNL1        0.0290
     23 C         143.9840  140.3253  157.9201 C.ar    1  UNL1        0.1320
     24 N         144.9018  141.4929  157.7095 N.ar    1  UNL1       -0.2092
     25 C         145.5711  141.6908  156.3818 C.ar    1  UNL1        0.2012
     26 N         145.3226  140.7211  155.2646 N.ar    1  UNL1       -0.2097
     27 C         144.4048  139.5535  155.4752 C.ar    1  UNL1        0.1257
     28 N         144.1564  138.5838  154.3580 N.pl3   1  UNL1       -0.3428
     29 C         143.7355  139.3556  156.8029 C.ar    1  UNL1        0.0402
     30 H         144.5957  138.7137  153.4866 H       1  UNL1        0.1437
     31 H         143.5540  137.8175  154.4962 H       1  UNL1        0.1437
     32 C         142.8176  138.1880  157.0135 C.3     1  UNL1        0.0278
     33 C         142.6116  136.7125  157.1874 C.3     1  UNL1        0.0049
     34 C         141.4339  137.6413  157.2042 C.3     1  UNL1        0.0049
     35 C         139.3825  137.8366  162.4803 C.3     1  UNL1        0.1245
     36 C         138.0559  138.2978  161.9537 C.3     1  UNL1        0.0970
     37 C         137.9645  139.8808  159.8956 C.3     1  UNL1        0.0897
     38 N         137.9147  139.6769  161.3809 N.3     1  UNL1       -0.2687
     39 C         137.7238  140.8521  162.2933 C.3     1  UNL1        0.0897
@<TRIPOS>BOND
     1    37    38    1
     2    38    39    1
     3    38    36    1
     4    36    35    1
     5    35     1    1
     6     1     2   ar
     7     2     3   ar
     8     3     6    1
     9     6     7   ar
    10     7     8   ar
    11     8     9   ar
    12     9    10    1
    13     9    11   ar
    14    11    13    1
    15    13    14    1
    16    13    15    1
    17    13    16    1
    18    11    12   ar
    19     3     4   ar
    20     4     5   ar
    21     5    17    1
    22    17    18    1
    23    18    19    1
    24    19    20    1
    25    20    23    1
    26    23    24   ar
    27    24    25   ar
    28    25    26   ar
    29    26    27   ar
    30    27    28    1
    31    27    29   ar
    32    29    32    1
    33    32    33    1
    34    33    34    1
    35    20    21    1
    36    21    22    1
    37     5     1   ar
    38    22    17    1
    39    12     6   ar
    40    29    23   ar
    41    34    32    1
    42    28    30    1
    43    28    31    1
@<TRIPOS>MOLECULE
*****
 39 43 0 0 0
SMALL
GASTEIGER

@<TRIPOS>ATOM
      1 N         141.1499  142.2915  162.8925 N.ar    1  UNL1       -0.3123
      2 C         140.9037  142.6323  164.3323 C.ar    1  UNL1        0.0961
      3 C         141.1210  141.3912  165.1462 C.ar    1  UNL1        0.0997
      4 N         141.5016  140.2833  164.2094 N.ar    1  UNL1       -0.2309
      5 C         141.5195  140.8397  162.8165 C.ar    1  UNL1        0.1200
      6 C         140.9821  141.2779  166.6355 C.ar    1  UNL1        0.0193
      7 C         139.9807  140.3298  167.2254 C.ar    1  UNL1        0.0038
      8 C         139.8418  140.2166  168.7146 C.ar    1  UNL1        0.0296
      9 C         140.7045  141.0515  169.6140 C.ar    1  UNL1        0.1440
     10 F         140.5656  140.9382  171.1033 F       1  UNL1       -0.2042
     11 C         141.7059  141.9996  169.0241 C.ar    1  UNL1        0.0988
     12 C         141.8448  142.1128  167.5348 C.ar    1  UNL1        0.0077
     13 C         142.5686  142.8345  169.9234 C.3     1  UNL1        0.4207
     14 F         143.4312  143.6694  170.8227 F       1  UNL1       -0.1658
     15 F         141.4913  143.8762  169.9897 F       1  UNL1       -0.1658
     16 F         143.6459  141.7929  169.8571 F       1  UNL1       -0.1658
     17 C         141.8490  140.0780  161.5670 C.3     1  UNL1        0.0603
     18 C         143.2726  139.7167  161.2623 C.3     1  UNL1        0.0290
     19 C         143.6022  138.9551  160.0128 C.3     1  UNL1        0.0926
     20 N         142.5081  138.5547  159.0680 N.pl3   1  UNL1       -0.2934
     21 C         141.0844  138.9159  159.3727 C.3     1  UNL1        0.0926
     22 C         140.7550  139.6775  160.6222 C.3     1  UNL1        0.0290
     23 C         142.8377  137.7930  157.8185 C.ar    1  UNL1        0.1320
     24 N         142.8338  136.2931  157.8315 N.ar    1  UNL1       -0.2092
     25 C         143.1633  135.5314  156.5820 C.ar    1  UNL1        0.2012
     26 N         143.4968  136.2697  155.3195 N.ar    1  UNL1       -0.2097
     27 C         143.5008  137.7696  155.3065 C.ar    1  UNL1        0.1257
     28 N         143.8343  138.5079  154.0441 N.pl3   1  UNL1       -0.3428
     29 C         143.1712  138.5313  156.5561 C.ar    1  UNL1        0.0402
     30 H         144.0506  138.0079  153.2240 H       1  UNL1        0.1437
     31 H         143.8368  139.4923  154.0356 H       1  UNL1        0.1437
     32 C         143.1751  140.0312  156.5431 C.3     1  UNL1        0.0278
     33 C         143.8458  141.3314  156.8743 C.3     1  UNL1        0.0049
     34 C         142.5113  141.3290  156.1895 C.3     1  UNL1        0.0049
     35 C         141.0451  143.2365  161.7323 C.3     1  UNL1        0.1245
     36 C         142.0456  144.3427  161.5732 C.3     1  UNL1        0.0970
     37 C         144.3994  143.2444  161.6303 C.3     1  UNL1        0.0897
     38 N         143.4062  144.2181  162.1921 N.3     1  UNL1       -0.2687
     39 C         143.7737  145.0671  163.3729 C.3     1  UNL1        0.0897
@<TRIPOS>BOND
     1    37    38    1
     2    38    39    1
     3    38    36    1
     4    36    35    1
     5    35     1    1
     6     1     2   ar
     7     2     3   ar
     8     3     6    1
     9     6     7   ar
    10     7     8   ar
    11     8     9   ar
    12     9    10    1
    13     9    11   ar
    14    11    13    1
    15    13    14    1
    16    13    15    1
    17    13    16    1
    18    11    12   ar
    19     3     4   ar
    20     4     5   ar
    21     5    17    1
    22    17    18    1
    23    18    19    1
    24    19    20    1
    25    20    23    1
    26    23    24   ar
    27    24    25   ar
    28    25    26   ar
    29    26    27   ar
    30    27    28    1
    31    27    29   ar
    32    29    32    1
    33    32    33    1
    34    33    34    1
    35    20    21    1
    36    21    22    1
    37     5     1   ar
    38    22    17    1
    39    12     6   ar
    40    29    23   ar
    41    34    32    1
    42    28    30    1
    43    28    31    1
@<TRIPOS>MOLECULE
*****
 39 43 0 0 0
SMALL
GASTEIGER

@<TRIPOS>ATOM
      1 N         142.1953  139.6410  163.6332 N.ar    1  UNL1       -0.3123
      2 C         142.2206  139.2281  165.0750 C.ar    1  UNL1        0.0961
      3 C         141.9132  140.4366  165.9087 C.ar    1  UNL1        0.0997
      4 N         141.6980  141.5964  164.9822 N.ar    1  UNL1       -0.2309
      5 C         141.8723  141.1048  163.5758 C.ar    1  UNL1        0.1200
      6 C         141.8348  140.4780  167.4062 C.ar    1  UNL1        0.0193
      7 C         142.5832  139.4680  168.2245 C.ar    1  UNL1        0.0038
      8 C         142.5048  139.5094  169.7219 C.ar    1  UNL1        0.0296
      9 C         141.6779  140.5607  170.4009 C.ar    1  UNL1        0.1440
     10 F         141.5995  140.6021  171.8983 F       1  UNL1       -0.2042
     11 C         140.9295  141.5707  169.5825 C.ar    1  UNL1        0.0988
     12 C         141.0079  141.5293  168.0851 C.ar    1  UNL1        0.0077
     13 C         140.1027  142.6221  170.2614 C.3     1  UNL1        0.4207
     14 F         139.2758  143.6734  170.9404 F       1  UNL1       -0.1658
     15 F         138.9503  141.6651  170.3399 F       1  UNL1       -0.1658
     16 F         141.2551  143.5790  170.1830 F       1  UNL1       -0.1658
     17 C         141.7459  141.9316  162.3307 C.3     1  UNL1        0.0603
     18 C         140.7428  141.5571  161.2803 C.3     1  UNL1        0.0290
     19 C         140.6164  142.3840  160.0352 C.3     1  UNL1        0.0926
     20 N         141.4931  143.5853  159.8405 N.pl3   1  UNL1       -0.2934
     21 C         142.4963  143.9599  160.8910 C.3     1  UNL1        0.0926
     22 C         142.6226  143.1331  162.1360 C.3     1  UNL1        0.0290
     23 C         141.3667  144.4122  158.5954 C.ar    1  UNL1        0.1320
     24 N         140.2917  145.4532  158.4923 N.ar    1  UNL1       -0.2092
     25 C         140.1652  146.2801  157.2472 C.ar    1  UNL1        0.2012
     26 N         141.1139  146.0659  156.1051 N.ar    1  UNL1       -0.2097
     27 C         142.1889  145.0249  156.2082 C.ar    1  UNL1        0.1257
     28 N         143.1375  144.8107  155.0661 N.pl3   1  UNL1       -0.3428
     29 C         142.3153  144.1980  157.4533 C.ar    1  UNL1        0.0402
     30 H         143.0545  145.3535  154.2489 H       1  UNL1        0.1437
     31 H         143.8430  144.1275  155.1337 H       1  UNL1        0.1437
     32 C         143.3903  143.1570  157.5564 C.3     1  UNL1        0.0278
     33 C         144.6547  142.6533  158.1869 C.3     1  UNL1        0.0049
     34 C         143.9879  141.8576  157.1043 C.3     1  UNL1        0.0049
     35 C         142.4486  138.7472  162.4555 C.3     1  UNL1        0.1245
     36 C         141.5407  137.5835  162.1882 C.3     1  UNL1        0.0970
     37 C         139.2068  137.6108  163.3294 C.3     1  UNL1        0.0897
     38 N         140.0575  137.7925  162.1074 N.3     1  UNL1       -0.2687
     39 C         139.4251  138.1831  160.8045 C.3     1  UNL1        0.0897
@<TRIPOS>BOND
     1    37    38    1
     2    38    39    1
     3    38    36    1
     4    36    35    1
     5    35     1    1
     6     1     2   ar
     7     2     3   ar
     8     3     6    1
     9     6     7   ar
    10     7     8   ar
    11     8     9   ar
    12     9    10    1
    13     9    11   ar
    14    11    13    1
    15    13    14    1
    16    13    15    1
    17    13    16    1
    18    11    12   ar
    19     3     4   ar
    20     4     5   ar
    21     5    17    1
    22    17    18    1
    23    18    19    1
    24    19    20    1
    25    20    23    1
    26    23    24   ar
    27    24    25   ar
    28    25    26   ar
    29    26    27   ar
    30    27    28    1
    31    27    29   ar
    32    29    32    1
    33    32    33    1
    34    33    34    1
    35    20    21    1
    36    21    22    1
    37     5     1   ar
    38    22    17    1
    39    12     6   ar
    40    29    23   ar
    41    34    32    1
    42    28    30    1
    43    28    31    1
@<TRIPOS>MOLECULE
*****
 39 43 0 0 0
SMALL
GASTEIGER

@<TRIPOS>ATOM
      1 N         139.0368  140.1750  163.8935 N.ar    1  UNL1       -0.3123
      2 C         139.0222  139.8323  165.3538 C.ar    1  UNL1        0.0961
      3 C         139.8181  140.8743  166.0824 C.ar    1  UNL1        0.0997
      4 N         140.3247  141.8609  165.0725 N.ar    1  UNL1       -0.2309
      5 C         139.8419  141.4287  163.7197 C.ar    1  UNL1        0.1200
      6 C         140.0642  140.9213  167.5614 C.ar    1  UNL1        0.0193
      7 C         139.2398  140.0757  168.4862 C.ar    1  UNL1        0.0038
      8 C         139.4860  140.1227  169.9650 C.ar    1  UNL1        0.0296
      9 C         140.5565  141.0154  170.5192 C.ar    1  UNL1        0.1440
     10 F         140.8026  141.0625  171.9982 F       1  UNL1       -0.2042
     11 C         141.3808  141.8611  169.5944 C.ar    1  UNL1        0.0988
     12 C         141.1347  141.8140  168.1155 C.ar    1  UNL1        0.0077
     13 C         142.4514  142.7538  170.1486 C.3     1  UNL1        0.4207
     14 F         143.5219  143.6465  170.7027 F       1  UNL1       -0.1658
     15 F         141.5021  143.9147  170.1122 F       1  UNL1       -0.1658
     16 F         143.4006  141.5930  170.1849 F       1  UNL1       -0.1658
     17 C         140.1159  142.1276  162.4210 C.3     1  UNL1        0.0603
     18 C         139.2214  143.2423  161.9658 C.3     1  UNL1        0.0290
     19 C         139.4954  143.9411  160.6672 C.3     1  UNL1        0.0926
     20 N         140.6640  143.5252  159.8237 N.pl3   1  UNL1       -0.2934
     21 C         141.5586  142.4104  160.2789 C.3     1  UNL1        0.0926
     22 C         141.2845  141.7117  161.5775 C.3     1  UNL1        0.0290
     23 C         140.9380  144.2241  158.5251 C.ar    1  UNL1        0.1320
     24 N         141.9806  145.3005  158.4580 N.ar    1  UNL1       -0.2092
     25 C         142.2546  145.9993  157.1593 C.ar    1  UNL1        0.2012
     26 N         141.4861  145.6217  155.9277 N.ar    1  UNL1       -0.2097
     27 C         140.4436  144.5453  155.9947 C.ar    1  UNL1        0.1257
     28 N         139.6751  144.1678  154.7631 N.pl3   1  UNL1       -0.3428
     29 C         140.1695  143.8465  157.2934 C.ar    1  UNL1        0.0402
     30 H         139.8550  144.6265  153.9108 H       1  UNL1        0.1437
     31 H         138.9909  143.4613  154.8071 H       1  UNL1        0.1437
     32 C         139.1270  142.7701  157.3605 C.3     1  UNL1        0.0278
     33 C         138.7614  141.3156  157.3874 C.3     1  UNL1        0.0049
     34 C         137.6868  142.3602  157.4496 C.3     1  UNL1        0.0049
     35 C         138.3646  139.4000  162.7993 C.3     1  UNL1        0.1245
     36 C         138.8397  138.0189  162.4573 C.3     1  UNL1        0.0970
     37 C         141.0602  138.0889  161.1102 C.3     1  UNL1        0.0897
     38 N         140.3092  137.7342  162.3593 N.3     1  UNL1       -0.2687
     39 C         141.0276  137.0947  163.5103 C.3     1  UNL1        0.0897
@<TRIPOS>BOND
     1    37    38    1
     2    38    39    1
     3    38    36    1
     4    36    35    1
     5    35     1    1
     6     1     2   ar
     7     2     3   ar
     8     3     6    1
     9     6     7   ar
    10     7     8   ar
    11     8     9   ar
    12     9    10    1
    13     9    11   ar
    14    11    13    1
    15    13    14    1
    16    13    15    1
    17    13    16    1
    18    11    12   ar
    19     3     4   ar
    20     4     5   ar
    21     5    17    1
    22    17    18    1
    23    18    19    1
    24    19    20    1
    25    20    23    1
    26    23    24   ar
    27    24    25   ar
    28    25    26   ar
    29    26    27   ar
    30    27    28    1
    31    27    29   ar
    32    29    32    1
    33    32    33    1
    34    33    34    1
    35    20    21    1
    36    21    22    1
    37     5     1   ar
    38    22    17    1
    39    12     6   ar
    40    29    23   ar
    41    34    32    1
    42    28    30    1
    43    28    31    1
@<TRIPOS>MOLECULE
*****
 39 43 0 0 0
SMALL
GASTEIGER

@<TRIPOS>ATOM
      1 N         140.3874  141.4655  163.4027 N.ar    1  UNL1       -0.3123
      2 C         140.2229  141.7129  164.8730 C.ar    1  UNL1        0.0961
      3 C         141.5852  141.9316  165.4616 C.ar    1  UNL1        0.0997
      4 N         142.5916  141.8194  164.3550 N.ar    1  UNL1       -0.2309
      5 C         141.8514  141.5314  163.0826 C.ar    1  UNL1        0.1200
      6 C         141.8878  142.2131  166.9035 C.ar    1  UNL1        0.0193
      7 C         143.3035  142.1620  167.3966 C.ar    1  UNL1        0.0038
      8 C         143.6061  142.4435  168.8385 C.ar    1  UNL1        0.0296
      9 C         142.4930  142.7761  169.7874 C.ar    1  UNL1        0.1440
     10 F         142.7957  143.0576  171.2293 F       1  UNL1       -0.2042
     11 C         141.0773  142.8273  169.2943 C.ar    1  UNL1        0.0988
     12 C         140.7747  142.5458  167.8524 C.ar    1  UNL1        0.0077
     13 C         139.9642  143.1599  170.2432 C.3     1  UNL1        0.4207
     14 F         138.8511  143.4925  171.1921 F       1  UNL1       -0.1658
     15 F         139.6246  141.7032  170.3555 F       1  UNL1       -0.1658
     16 F         140.3038  144.6166  170.1309 F       1  UNL1       -0.1658
     17 C         142.4670  141.3423  161.7279 C.3     1  UNL1        0.0603
     18 C         143.4550  140.2368  161.5007 C.3     1  UNL1        0.0290
     19 C         144.0706  140.0478  160.1459 C.3     1  UNL1        0.0926
     20 N         143.6982  140.9643  159.0185 N.pl3   1  UNL1       -0.2934
     21 C         142.7102  142.0699  159.2456 C.3     1  UNL1        0.0926
     22 C         142.0947  142.2588  160.6003 C.3     1  UNL1        0.0290
     23 C         144.3139  140.7753  157.6637 C.ar    1  UNL1        0.1320
     24 N         145.4015  141.6977  157.1988 N.ar    1  UNL1       -0.2092
     25 C         146.0171  141.5087  155.8441 C.ar    1  UNL1        0.2012
     26 N         145.5451  140.3971  154.9542 N.ar    1  UNL1       -0.2097
     27 C         144.4574  139.4747  155.4191 C.ar    1  UNL1        0.1257
     28 N         143.9854  138.3632  154.5293 N.pl3   1  UNL1       -0.3428
     29 C         143.8418  139.6637  156.7739 C.ar    1  UNL1        0.0402
     30 H         144.3895  138.2392  153.6401 H       1  UNL1        0.1437
     31 H         143.2716  137.7578  154.8344 H       1  UNL1        0.1437
     32 C         142.7542  138.7413  157.2388 C.3     1  UNL1        0.0278
     33 C         142.3128  137.3887  157.7137 C.3     1  UNL1        0.0049
     34 C         141.3116  138.4962  157.5690 C.3     1  UNL1        0.0049
     35 C         139.2820  141.1991  162.4244 C.3     1  UNL1        0.1245
     36 C         138.4408  139.9647  162.5611 C.3     1  UNL1        0.0970
     37 C         139.8236  138.2340  161.2038 C.3     1  UNL1        0.0897
     38 N         139.0735  138.6095  162.4473 N.3     1  UNL1       -0.2687
     39 C         138.9562  137.6298  163.5771 C.3     1  UNL1        0.0897
@<TRIPOS>BOND
     1    37    38    1
     2    38    39    1
     3    38    36    1
     4    36    35    1
     5    35     1    1
     6     1     2   ar
     7     2     3   ar
     8     3     6    1
     9     6     7   ar
    10     7     8   ar
    11     8     9   ar
    12     9    10    1
    13     9    11   ar
    14    11    13    1
    15    13    14    1
    16    13    15    1
    17    13    16    1
    18    11    12   ar
    19     3     4   ar
    20     4     5   ar
    21     5    17    1
    22    17    18    1
    23    18    19    1
    24    19    20    1
    25    20    23    1
    26    23    24   ar
    27    24    25   ar
    28    25    26   ar
    29    26    27   ar
    30    27    28    1
    31    27    29   ar
    32    29    32    1
    33    32    33    1
    34    33    34    1
    35    20    21    1
    36    21    22    1
    37     5     1   ar
    38    22    17    1
    39    12     6   ar
    40    29    23   ar
    41    34    32    1
    42    28    30    1
    43    28    31    1
@<TRIPOS>MOLECULE
*****
 39 43 0 0 0
SMALL
GASTEIGER

@<TRIPOS>ATOM
      1 N         141.4089  143.8325  163.2491 N.ar    1  UNL1       -0.3123
      2 C         141.1274  143.7032  164.7167 C.ar    1  UNL1        0.0961
      3 C         141.7040  142.4005  165.1863 C.ar    1  UNL1        0.0997
      4 N         142.3421  141.7248  164.0090 N.ar    1  UNL1       -0.2309
      5 C         142.1597  142.6097  162.8117 C.ar    1  UNL1        0.1200
      6 C         141.6519  141.8673  166.5874 C.ar    1  UNL1        0.0193
      7 C         142.3989  140.6158  166.9419 C.ar    1  UNL1        0.0038
      8 C         142.3466  140.0827  168.3430 C.ar    1  UNL1        0.0296
      9 C         141.5474  140.8010  169.3895 C.ar    1  UNL1        0.1440
     10 F         141.4952  140.2678  170.7906 F       1  UNL1       -0.2042
     11 C         140.8004  142.0525  169.0350 C.ar    1  UNL1        0.0988
     12 C         140.8526  142.5856  167.6340 C.ar    1  UNL1        0.0077
     13 C         140.0012  142.7708  170.0816 C.3     1  UNL1        0.4207
     14 F         139.2020  143.4891  171.1281 F       1  UNL1       -0.1658
     15 F         139.0355  141.6241  170.1311 F       1  UNL1       -0.1658
     16 F         140.9669  143.9175  170.0320 F       1  UNL1       -0.1658
     17 C         142.6432  142.3224  161.4211 C.3     1  UNL1        0.0603
     18 C         143.9659  142.8596  160.9610 C.3     1  UNL1        0.0290
     19 C         144.4494  142.5723  159.5704 C.3     1  UNL1        0.0926
     20 N         143.6101  141.7478  158.6400 N.pl3   1  UNL1       -0.2934
     21 C         142.2873  141.2106  159.1001 C.3     1  UNL1        0.0926
     22 C         141.8039  141.4979  160.4906 C.3     1  UNL1        0.0290
     23 C         144.0936  141.4605  157.2494 C.ar    1  UNL1        0.1320
     24 N         144.9869  140.2828  156.9943 N.ar    1  UNL1       -0.2092
     25 C         145.4704  139.9955  155.6037 C.ar    1  UNL1        0.2012
     26 N         145.0605  140.8859  154.4682 N.ar    1  UNL1       -0.2097
     27 C         144.1672  142.0636  154.7233 C.ar    1  UNL1        0.1257
     28 N         143.7573  142.9539  153.5878 N.pl3   1  UNL1       -0.3428
     29 C         143.6837  142.3509  156.1139 C.ar    1  UNL1        0.0402
     30 H         144.0746  142.7653  152.6751 H       1  UNL1        0.1437
     31 H         143.1710  143.7268  153.7552 H       1  UNL1        0.1437
     32 C         142.7904  143.5285  156.3690 C.3     1  UNL1        0.0278
     33 C         141.7124  144.4650  155.9095 C.3     1  UNL1        0.0049
     34 C         142.3210  144.6318  157.2703 C.3     1  UNL1        0.0049
     35 C         141.0099  144.9826  162.3727 C.3     1  UNL1        0.1245
     36 C         139.6786  144.9722  161.6816 C.3     1  UNL1        0.0970
     37 C         137.7693  144.2388  163.2837 C.3     1  UNL1        0.0897
     38 N         138.6319  143.9764  162.0849 N.3     1  UNL1       -0.2687
     39 C         138.4478  142.7181  161.2894 C.3     1  UNL1        0.0897
@<TRIPOS>BOND
     1    37    38    1
     2    38    39    1
     3    38    36    1
     4    36    35    1
     5    35     1    1
     6     1     2   ar
     7     2     3   ar
     8     3     6    1
     9     6     7   ar
    10     7     8   ar
    11     8     9   ar
    12     9    10    1
    13     9    11   ar
    14    11    13    1
    15    13    14    1
    16    13    15    1
    17    13    16    1
    18    11    12   ar
    19     3     4   ar
    20     4     5   ar
    21     5    17    1
    22    17    18    1
    23    18    19    1
    24    19    20    1
    25    20    23    1
    26    23    24   ar
    27    24    25   ar
    28    25    26   ar
    29    26    27   ar
    30    27    28    1
    31    27    29   ar
    32    29    32    1
    33    32    33    1
    34    33    34    1
    35    20    21    1
    36    21    22    1
    37     5     1   ar
    38    22    17    1
    39    12     6   ar
    40    29    23   ar
    41    34    32    1
    42    28    30    1
    43    28    31    1
@<TRIPOS>MOLECULE
*****
 39 43 0 0 0
SMALL
GASTEIGER

@<TRIPOS>ATOM
      1 N         141.2487  142.4309  162.8758 N.ar    1  UNL1       -0.3123
      2 C         140.9934  142.7589  164.3170 C.ar    1  UNL1        0.0961
      3 C         141.1536  141.4986  165.1146 C.ar    1  UNL1        0.0997
      4 N         141.5079  140.3918  164.1663 N.ar    1  UNL1       -0.2309
      5 C         141.5667  140.9679  162.7826 C.ar    1  UNL1        0.1200
      6 C         140.9884  141.3682  166.5998 C.ar    1  UNL1        0.0193
      7 C         139.9595  140.4318  167.1607 C.ar    1  UNL1        0.0038
      8 C         139.7944  140.3014  168.6458 C.ar    1  UNL1        0.0296
      9 C         140.6582  141.1074  169.5701 C.ar    1  UNL1        0.1440
     10 F         140.4930  140.9769  171.0553 F       1  UNL1       -0.2042
     11 C         141.6871  142.0437  169.0093 C.ar    1  UNL1        0.0988
     12 C         141.8522  142.1741  167.5241 C.ar    1  UNL1        0.0077
     13 C         142.5509  142.8496  169.9336 C.3     1  UNL1        0.4207
     14 F         143.4147  143.6555  170.8579 F       1  UNL1       -0.1658
     15 F         143.6356  141.8202  169.8175 F       1  UNL1       -0.1658
     16 F         141.4661  143.8791  170.0497 F       1  UNL1       -0.1658
     17 C         141.8872  140.2136  161.5263 C.3     1  UNL1        0.0603
     18 C         140.7886  139.8356  160.5775 C.3     1  UNL1        0.0290
     19 C         141.1091  139.0812  159.3212 C.3     1  UNL1        0.0926
     20 N         142.5282  138.7049  159.0138 N.pl3   1  UNL1       -0.2934
     21 C         143.6268  139.0829  159.9627 C.3     1  UNL1        0.0926
     22 C         143.3063  139.8372  161.2188 C.3     1  UNL1        0.0290
     23 C         142.8487  137.9505  157.7575 C.ar    1  UNL1        0.1320
     24 N         142.7776  136.4523  157.7435 N.ar    1  UNL1       -0.2092
     25 C         143.0981  135.6979  156.4872 C.ar    1  UNL1        0.2012
     26 N         143.4897  136.4419  155.2449 N.ar    1  UNL1       -0.2097
     27 C         143.5608  137.9401  155.2589 C.ar    1  UNL1        0.1257
     28 N         143.9524  138.6840  154.0166 N.pl3   1  UNL1       -0.3428
     29 C         143.2403  138.6945  156.5152 C.ar    1  UNL1        0.0402
     30 H         144.1628  138.1889  153.1921 H       1  UNL1        0.1437
     31 H         143.9991  139.6674  154.0258 H       1  UNL1        0.1437
     32 C         143.3114  140.1927  156.5292 C.3     1  UNL1        0.0278
     33 C         144.1130  141.4562  156.4243 C.3     1  UNL1        0.0049
     34 C         142.6329  141.5243  156.6584 C.3     1  UNL1        0.0049
     35 C         141.1954  143.3964  161.7290 C.3     1  UNL1        0.1245
     36 C         139.9594  144.2127  161.4926 C.3     1  UNL1        0.0970
     37 C         137.7967  144.2816  162.9307 C.3     1  UNL1        0.0897
     38 N         138.6124  143.6519  161.8406 N.3     1  UNL1       -0.2687
     39 C         138.0810  142.4616  161.0985 C.3     1  UNL1        0.0897
@<TRIPOS>BOND
     1    37    38    1
     2    38    39    1
     3    38    36    1
     4    36    35    1
     5    35     1    1
     6     1     2   ar
     7     2     3   ar
     8     3     6    1
     9     6     7   ar
    10     7     8   ar
    11     8     9   ar
    12     9    10    1
    13     9    11   ar
    14    11    13    1
    15    13    14    1
    16    13    15    1
    17    13    16    1
    18    11    12   ar
    19     3     4   ar
    20     4     5   ar
    21     5    17    1
    22    17    18    1
    23    18    19    1
    24    19    20    1
    25    20    23    1
    26    23    24   ar
    27    24    25   ar
    28    25    26   ar
    29    26    27   ar
    30    27    28    1
    31    27    29   ar
    32    29    32    1
    33    32    33    1
    34    33    34    1
    35    20    21    1
    36    21    22    1
    37     5     1   ar
    38    22    17    1
    39    12     6   ar
    40    29    23   ar
    41    34    32    1
    42    28    30    1
    43    28    31    1
@<TRIPOS>MOLECULE
*****
 39 43 0 0 0
SMALL
GASTEIGER

@<TRIPOS>ATOM
      1 N         143.5850  140.4464  158.9672 N.ar    1  UNL1       -0.3123
      2 C         143.6188  139.7694  157.6291 C.ar    1  UNL1        0.0961
      3 C         142.9884  138.4164  157.7781 C.ar    1  UNL1        0.0997
      4 N         142.5650  138.2572  159.2082 N.ar    1  UNL1       -0.2309
      5 C         142.9336  139.5118  159.9432 C.ar    1  UNL1        0.1200
      6 C         142.8124  137.4009  156.6881 C.ar    1  UNL1        0.0193
      7 C         142.6387  137.8484  155.2671 C.ar    1  UNL1        0.0038
      8 C         142.4627  136.8329  154.1772 C.ar    1  UNL1        0.0296
      9 C         142.4603  135.3699  154.5085 C.ar    1  UNL1        0.1440
     10 F         142.2843  134.3544  153.4186 F       1  UNL1       -0.2042
     11 C         142.6340  134.9225  155.9296 C.ar    1  UNL1        0.0988
     12 C         142.8100  135.9379  157.0194 C.ar    1  UNL1        0.0077
     13 C         142.6317  133.4595  156.2608 C.3     1  UNL1        0.4207
     14 F         142.6293  131.9965  156.5921 F       1  UNL1       -0.1658
     15 F         141.2001  133.3628  155.8234 F       1  UNL1       -0.1658
     16 F         144.0632  133.5562  156.6982 F       1  UNL1       -0.1658
     17 C         142.6932  139.7840  161.3985 C.3     1  UNL1        0.0603
     18 C         143.5854  139.1667  162.4344 C.3     1  UNL1        0.0290
     19 C         143.3449  139.4389  163.8898 C.3     1  UNL1        0.0926
     20 N         142.2124  140.3285  164.3092 N.pl3   1  UNL1       -0.2934
     21 C         141.3203  140.9459  163.2733 C.3     1  UNL1        0.0926
     22 C         141.5607  140.6736  161.8181 C.3     1  UNL1        0.0290
     23 C         141.9720  140.6007  165.7646 C.ar    1  UNL1        0.1320
     24 N         142.9276  141.4637  166.5340 N.ar    1  UNL1       -0.2092
     25 C         142.6872  141.7360  167.9894 C.ar    1  UNL1        0.2012
     26 N         141.4911  141.1451  168.6754 N.ar    1  UNL1       -0.2097
     27 C         140.5355  140.2822  167.9059 C.ar    1  UNL1        0.1257
     28 N         139.3395  139.6914  168.5919 N.pl3   1  UNL1       -0.3428
     29 C         140.7759  140.0099  166.4505 C.ar    1  UNL1        0.0402
     30 H         139.1818  139.8701  169.5471 H       1  UNL1        0.1437
     31 H         138.7123  139.1250  168.0869 H       1  UNL1        0.1437
     32 C         139.8203  139.1469  165.6811 C.3     1  UNL1        0.0278
     33 C         138.4712  138.9365  165.0603 C.3     1  UNL1        0.0049
     34 C         139.5144  137.8625  164.9692 C.3     1  UNL1        0.0049
     35 C         144.1102  141.8172  159.2753 C.3     1  UNL1        0.1245
     36 C         143.1598  142.9676  159.4283 C.3     1  UNL1        0.0970
     37 C         144.0365  143.4428  161.8274 C.3     1  UNL1        0.0897
     38 N         142.9979  143.6343  160.7622 N.3     1  UNL1       -0.2687
     39 C         141.7974  144.4925  161.0308 C.3     1  UNL1        0.0897
@<TRIPOS>BOND
     1    37    38    1
     2    38    39    1
     3    38    36    1
     4    36    35    1
     5    35     1    1
     6     1     2   ar
     7     2     3   ar
     8     3     6    1
     9     6     7   ar
    10     7     8   ar
    11     8     9   ar
    12     9    10    1
    13     9    11   ar
    14    11    13    1
    15    13    14    1
    16    13    15    1
    17    13    16    1
    18    11    12   ar
    19     3     4   ar
    20     4     5   ar
    21     5    17    1
    22    17    18    1
    23    18    19    1
    24    19    20    1
    25    20    23    1
    26    23    24   ar
    27    24    25   ar
    28    25    26   ar
    29    26    27   ar
    30    27    28    1
    31    27    29   ar
    32    29    32    1
    33    32    33    1
    34    33    34    1
    35    20    21    1
    36    21    22    1
    37     5     1   ar
    38    22    17    1
    39    12     6   ar
    40    29    23   ar
    41    34    32    1
    42    28    30    1
    43    28    31    1
