@<TRIPOS>MOLECULE
*****
 29 31 0 0 0
SMALL
GASTEIGER

@<TRIPOS>ATOM
      1 N         138.5349  139.8010  162.4880 N.3     1  UNL1       -0.2700
      2 C         139.5952  140.5093  161.6980 C.3     1  UNL1        0.0897
      3 C         139.6047  142.0077  161.6301 C.3     1  UNL1        0.0897
      4 N         138.5539  142.7978  162.3523 N.3     1  UNL1       -0.2700
      5 C         137.4936  142.0895  163.1422 C.3     1  UNL1        0.0897
      6 C         137.4841  140.5911  163.2101 C.3     1  UNL1        0.0897
      7 C         138.5254  138.3025  162.5558 C.3     1  UNL1        0.0769
      8 C         139.0833  137.6027  163.7594 C.3     1  UNL1        0.0437
      9 C         139.6039  139.8452  167.6259 C.ar    1  UNL1        0.1057
     10 C         138.3309  139.0988  167.3574 C.ar    1  UNL1        0.0180
     11 C         138.1573  138.3513  166.0685 C.ar    1  UNL1       -0.0029
     12 C         139.2569  138.3502  165.0483 C.ar    1  UNL1       -0.0207
     13 C         140.5299  139.0966  165.3168 C.ar    1  UNL1       -0.0029
     14 C         140.7034  139.8441  166.6057 C.ar    1  UNL1        0.0180
     15 C         139.9510  141.3403  170.2036 C.3     1  UNL1        0.1816
     16 S         139.7774  140.5928  168.9148 S.O2    1  UNL1        0.0104
     17 O         138.6626  139.7971  169.5264 O.2     1  UNL1       -0.1686
     18 O         140.8922  141.3885  168.3032 O.2     1  UNL1       -0.1686
     19 C         138.5634  144.2963  162.2845 C.3     1  UNL1        0.0769
     20 C         139.2628  145.0907  163.3474 C.3     1  UNL1        0.0437
     21 C         140.6348  144.6902  163.8024 C.ar    1  UNL1       -0.0204
     22 C         141.8412  145.3969  163.2591 C.ar    1  UNL1        0.0021
     23 C         143.2133  144.9963  163.7140 C.ar    1  UNL1        0.0749
     24 C         143.3790  143.8891  164.7123 C.ar    1  UNL1        0.2900
     25 C         142.1726  143.1824  165.2557 C.ar    1  UNL1        0.0749
     26 C         140.8005  143.5829  164.8007 C.ar    1  UNL1        0.0021
     27 N         144.7511  143.4886  165.1673 N.pl3   1  UNL1        0.0809
     28 O         145.4555  142.3414  164.5055 O.2     1  UNL1        0.0415
     29 O         145.4187  144.2352  166.2839 O.co2   1  UNL1       -0.5760
@<TRIPOS>UNITY_ATOM_ATTR
27 1
charge 1
29 1
charge -1
@<TRIPOS>BOND
     1    15    16    1
     2    16    17    2
     3    16    18    2
     4    16     9    1
     5     9    10   ar
     6    10    11   ar
     7    11    12   ar
     8    12     8    1
     9     8     7    1
    10     7     1    1
    11     1     2    1
    12     2     3    1
    13     3     4    1
    14     4    19    1
    15    19    20    1
    16    20    21    1
    17    21    22   ar
    18    22    23   ar
    19    23    24   ar
    20    24    27    1
    21    27    28    2
    22    27    29    1
    23    24    25   ar
    24    25    26   ar
    25     4     5    1
    26     5     6    1
    27    12    13   ar
    28    13    14   ar
    29    14     9   ar
    30     6     1    1
    31    26    21   ar
@<TRIPOS>MOLECULE
*****
 29 31 0 0 0
SMALL
GASTEIGER

@<TRIPOS>ATOM
      1 N         139.8913  138.0616  164.4362 N.3     1  UNL1       -0.2700
      2 C         141.2464  138.2545  165.0498 C.3     1  UNL1        0.0897
      3 C         142.4706  138.2434  164.1832 C.3     1  UNL1        0.0897
      4 N         142.3397  138.0394  162.7028 N.3     1  UNL1       -0.2700
      5 C         140.9847  137.8465  162.0892 C.3     1  UNL1        0.0897
      6 C         139.7604  137.8576  162.9559 C.3     1  UNL1        0.0897
      7 C         138.6670  138.0727  165.3028 C.3     1  UNL1        0.0769
      8 C         138.1163  139.3740  165.8063 C.3     1  UNL1        0.0437
      9 C         139.0573  143.2042  163.6398 C.ar    1  UNL1        0.1057
     10 C         139.8086  142.8440  164.8871 C.ar    1  UNL1        0.0180
     11 C         139.4949  141.5673  165.6093 C.ar    1  UNL1       -0.0029
     12 C         138.4300  140.6507  165.0841 C.ar    1  UNL1       -0.0207
     13 C         137.6788  141.0109  163.8368 C.ar    1  UNL1       -0.0029
     14 C         137.9924  142.2876  163.1146 C.ar    1  UNL1        0.0180
     15 C         139.6847  145.7577  162.1954 C.3     1  UNL1        0.1816
     16 S         139.3710  144.4809  162.9176 S.O2    1  UNL1        0.0104
     17 O         138.4514  144.0768  161.8036 O.2     1  UNL1       -0.1686
     18 O         140.2906  144.8851  164.0316 O.2     1  UNL1       -0.1686
     19 C         143.5640  138.0283  161.8362 C.3     1  UNL1        0.0769
     20 C         144.0986  139.3133  161.2768 C.3     1  UNL1        0.0437
     21 C         144.1469  140.5424  162.1353 C.ar    1  UNL1       -0.0204
     22 C         143.1261  141.6260  161.9520 C.ar    1  UNL1        0.0021
     23 C         143.1744  142.8550  162.8105 C.ar    1  UNL1        0.0749
     24 C         144.2436  143.0005  163.8524 C.ar    1  UNL1        0.2900
     25 C         145.2645  141.9169  164.0358 C.ar    1  UNL1        0.0749
     26 C         145.2162  140.6878  163.1773 C.ar    1  UNL1        0.0021
     27 N         144.2919  144.2295  164.7110 N.pl3   1  UNL1        0.0809
     28 O         143.6239  145.4917  164.2520 O.2     1  UNL1        0.0415
     29 O         145.0083  144.1964  166.0284 O.co2   1  UNL1       -0.5760
@<TRIPOS>UNITY_ATOM_ATTR
27 1
charge 1
29 1
charge -1
@<TRIPOS>BOND
     1    15    16    1
     2    16    17    2
     3    16    18    2
     4    16     9    1
     5     9    10   ar
     6    10    11   ar
     7    11    12   ar
     8    12     8    1
     9     8     7    1
    10     7     1    1
    11     1     2    1
    12     2     3    1
    13     3     4    1
    14     4    19    1
    15    19    20    1
    16    20    21    1
    17    21    22   ar
    18    22    23   ar
    19    23    24   ar
    20    24    27    1
    21    27    28    2
    22    27    29    1
    23    24    25   ar
    24    25    26   ar
    25     4     5    1
    26     5     6    1
    27    12    13   ar
    28    13    14   ar
    29    14     9   ar
    30     6     1    1
    31    26    21   ar
@<TRIPOS>MOLECULE
*****
 29 31 0 0 0
SMALL
GASTEIGER

@<TRIPOS>ATOM
      1 N         142.1584  140.5327  167.0380 N.3     1  UNL1       -0.2700
      2 C         142.7789  139.6599  165.9875 C.3     1  UNL1        0.0897
      3 C         143.7677  140.2390  165.0196 C.3     1  UNL1        0.0897
      4 N         144.1360  141.6907  165.1020 N.3     1  UNL1       -0.2700
      5 C         143.5156  142.5634  166.1524 C.3     1  UNL1        0.0897
      6 C         142.5268  141.9844  167.1204 C.3     1  UNL1        0.0897
      7 C         141.1696  139.9536  168.0060 C.3     1  UNL1        0.0769
      8 C         139.7070  139.9522  167.6733 C.3     1  UNL1        0.0437
      9 C         138.3774  139.8916  163.3747 C.ar    1  UNL1        0.1057
     10 C         138.6404  138.6034  164.0966 C.ar    1  UNL1        0.0180
     11 C         139.0836  138.6236  165.5295 C.ar    1  UNL1       -0.0029
     12 C         139.2638  139.9320  166.2404 C.ar    1  UNL1       -0.0207
     13 C         139.0008  141.2202  165.5185 C.ar    1  UNL1       -0.0029
     14 C         138.5576  141.2000  164.0856 C.ar    1  UNL1        0.0180
     15 C         137.4909  139.8512  160.5089 C.3     1  UNL1        0.1816
     16 S         137.9342  139.8714  161.9418 S.O2    1  UNL1        0.0104
     17 O         138.5255  138.5026  161.7782 O.2     1  UNL1       -0.1686
     18 O         137.3428  141.2401  162.1054 O.2     1  UNL1       -0.1686
     19 C         145.1248  142.2698  164.1340 C.3     1  UNL1        0.0769
     20 C         144.6726  142.7098  162.7731 C.3     1  UNL1        0.0437
     21 C         143.3215  143.3374  162.5983 C.ar    1  UNL1       -0.0204
     22 C         143.0518  144.7041  163.1545 C.ar    1  UNL1        0.0021
     23 C         141.7006  145.3317  162.9797 C.ar    1  UNL1        0.0749
     24 C         140.6193  144.5926  162.2487 C.ar    1  UNL1        0.2900
     25 C         140.8890  143.2258  161.6925 C.ar    1  UNL1        0.0749
     26 C         142.2401  142.5982  161.8673 C.ar    1  UNL1        0.0021
     27 N         139.2681  145.2202  162.0739 N.pl3   1  UNL1        0.0809
     28 O         139.1392  146.5396  161.3720 O.2     1  UNL1        0.0415
     29 O         138.0460  144.5285  162.6010 O.co2   1  UNL1       -0.5760
@<TRIPOS>UNITY_ATOM_ATTR
27 1
charge 1
29 1
charge -1
@<TRIPOS>BOND
     1    15    16    1
     2    16    17    2
     3    16    18    2
     4    16     9    1
     5     9    10   ar
     6    10    11   ar
     7    11    12   ar
     8    12     8    1
     9     8     7    1
    10     7     1    1
    11     1     2    1
    12     2     3    1
    13     3     4    1
    14     4    19    1
    15    19    20    1
    16    20    21    1
    17    21    22   ar
    18    22    23   ar
    19    23    24   ar
    20    24    27    1
    21    27    28    2
    22    27    29    1
    23    24    25   ar
    24    25    26   ar
    25     4     5    1
    26     5     6    1
    27    12    13   ar
    28    13    14   ar
    29    14     9   ar
    30     6     1    1
    31    26    21   ar
@<TRIPOS>MOLECULE
*****
 29 31 0 0 0
SMALL
GASTEIGER

@<TRIPOS>ATOM
      1 N         142.0946  138.0132  164.3381 N.3     1  UNL1       -0.2700
      2 C         142.5430  138.3022  162.9361 C.3     1  UNL1        0.0897
      3 C         143.5966  139.3398  162.6845 C.3     1  UNL1        0.0897
      4 N         144.2018  140.0884  163.8349 N.3     1  UNL1       -0.2700
      5 C         143.7534  139.7994  165.2368 C.3     1  UNL1        0.0897
      6 C         142.6998  138.7617  165.4884 C.3     1  UNL1        0.0897
      7 C         141.0410  136.9755  164.5896 C.3     1  UNL1        0.0769
      8 C         139.5966  137.3743  164.6567 C.3     1  UNL1        0.0437
      9 C         138.3875  141.6120  163.7459 C.ar    1  UNL1        0.1057
     10 C         138.4367  140.5933  162.6461 C.ar    1  UNL1        0.0180
     11 C         138.8397  139.1807  162.9497 C.ar    1  UNL1       -0.0029
     12 C         139.1935  138.7869  164.3531 C.ar    1  UNL1       -0.0207
     13 C         139.1444  139.8056  165.4530 C.ar    1  UNL1       -0.0029
     14 C         138.7414  141.2182  165.1494 C.ar    1  UNL1        0.0180
     15 C         137.5815  144.4372  163.1388 C.3     1  UNL1        0.1816
     16 S         137.9845  143.0246  163.4424 S.O2    1  UNL1        0.0104
     17 O         137.5233  142.6002  162.0796 O.2     1  UNL1       -0.1686
     18 O         138.4458  143.4491  164.8051 O.2     1  UNL1       -0.1686
     19 C         145.2554  141.1260  163.5834 C.3     1  UNL1        0.0769
     20 C         144.9837  142.5649  163.9088 C.3     1  UNL1        0.0437
     21 C         143.8348  143.2770  163.2585 C.ar    1  UNL1       -0.0204
     22 C         142.9657  144.1935  164.0675 C.ar    1  UNL1        0.0021
     23 C         141.8168  144.9056  163.4171 C.ar    1  UNL1        0.0749
     24 C         141.5370  144.7011  161.9577 C.ar    1  UNL1        0.2900
     25 C         142.4062  143.7846  161.1486 C.ar    1  UNL1        0.0749
     26 C         143.5551  143.0725  161.7990 C.ar    1  UNL1        0.0021
     27 N         140.3881  145.4132  161.3074 N.pl3   1  UNL1        0.0809
     28 O         139.7322  144.8257  160.0930 O.2     1  UNL1        0.0415
     29 O         139.8951  146.7127  161.8714 O.co2   1  UNL1       -0.5760
@<TRIPOS>UNITY_ATOM_ATTR
27 1
charge 1
29 1
charge -1
@<TRIPOS>BOND
     1    15    16    1
     2    16    17    2
     3    16    18    2
     4    16     9    1
     5     9    10   ar
     6    10    11   ar
     7    11    12   ar
     8    12     8    1
     9     8     7    1
    10     7     1    1
    11     1     2    1
    12     2     3    1
    13     3     4    1
    14     4    19    1
    15    19    20    1
    16    20    21    1
    17    21    22   ar
    18    22    23   ar
    19    23    24   ar
    20    24    27    1
    21    27    28    2
    22    27    29    1
    23    24    25   ar
    24    25    26   ar
    25     4     5    1
    26     5     6    1
    27    12    13   ar
    28    13    14   ar
    29    14     9   ar
    30     6     1    1
    31    26    21   ar
@<TRIPOS>MOLECULE
*****
 29 31 0 0 0
SMALL
GASTEIGER

@<TRIPOS>ATOM
      1 N         139.3459  138.0780  162.7119 N.3     1  UNL1       -0.2700
      2 C         138.9796  138.2543  164.1558 C.3     1  UNL1        0.0897
      3 C         140.0561  138.3954  165.1908 C.3     1  UNL1        0.0897
      4 N         141.4990  138.3602  164.7819 N.3     1  UNL1       -0.2700
      5 C         141.8652  138.1838  163.3381 C.3     1  UNL1        0.0897
      6 C         140.7887  138.0428  162.3031 C.3     1  UNL1        0.0897
      7 C         138.2694  137.9369  161.6769 C.3     1  UNL1        0.0769
      8 C         137.3919  139.1068  161.3432 C.3     1  UNL1        0.0437
      9 C         138.9856  143.2974  161.7289 C.ar    1  UNL1        0.1057
     10 C         139.5170  142.3882  160.6608 C.ar    1  UNL1        0.0180
     11 C         138.9857  140.9914  160.5322 C.ar    1  UNL1       -0.0029
     12 C         137.9231  140.5036  161.4718 C.ar    1  UNL1       -0.0207
     13 C         137.3917  141.4128  162.5400 C.ar    1  UNL1       -0.0029
     14 C         137.9229  142.8097  162.6685 C.ar    1  UNL1        0.0180
     15 C         140.0480  146.0911  161.9861 C.3     1  UNL1        0.1816
     16 S         139.5168  144.6943  161.8575 S.O2    1  UNL1        0.0104
     17 O         140.8355  144.2439  161.3023 O.2     1  UNL1       -0.1686
     18 O         138.1981  145.1447  162.4127 O.2     1  UNL1       -0.1686
     19 C         142.5755  138.5012  165.8169 C.3     1  UNL1        0.0769
     20 C         143.0711  139.8635  166.2026 C.3     1  UNL1        0.0437
     21 C         142.4053  140.6163  167.3162 C.ar    1  UNL1       -0.0204
     22 C         141.3739  141.6597  167.0044 C.ar    1  UNL1        0.0021
     23 C         140.7081  142.4125  168.1179 C.ar    1  UNL1        0.0749
     24 C         141.0738  142.1219  169.5433 C.ar    1  UNL1        0.2900
     25 C         142.1052  141.0783  169.8552 C.ar    1  UNL1        0.0749
     26 C         142.7710  140.3255  168.7417 C.ar    1  UNL1        0.0021
     27 N         140.4080  142.8746  170.6569 N.pl3   1  UNL1        0.0809
     28 O         139.8845  144.2599  170.4177 O.2     1  UNL1        0.0415
     29 O         140.2656  142.2423  172.0096 O.co2   1  UNL1       -0.5760
@<TRIPOS>UNITY_ATOM_ATTR
27 1
charge 1
29 1
charge -1
@<TRIPOS>BOND
     1    15    16    1
     2    16    17    2
     3    16    18    2
     4    16     9    1
     5     9    10   ar
     6    10    11   ar
     7    11    12   ar
     8    12     8    1
     9     8     7    1
    10     7     1    1
    11     1     2    1
    12     2     3    1
    13     3     4    1
    14     4    19    1
    15    19    20    1
    16    20    21    1
    17    21    22   ar
    18    22    23   ar
    19    23    24   ar
    20    24    27    1
    21    27    28    2
    22    27    29    1
    23    24    25   ar
    24    25    26   ar
    25     4     5    1
    26     5     6    1
    27    12    13   ar
    28    13    14   ar
    29    14     9   ar
    30     6     1    1
    31    26    21   ar
@<TRIPOS>MOLECULE
*****
 29 31 0 0 0
SMALL
GASTEIGER

@<TRIPOS>ATOM
      1 N         140.2514  144.7725  162.4304 N.3     1  UNL1       -0.2700
      2 C         141.1175  145.4175  163.4715 C.3     1  UNL1        0.0897
      3 C         142.5697  145.0545  163.5689 C.3     1  UNL1        0.0897
      4 N         143.1557  144.0465  162.6251 N.3     1  UNL1       -0.2700
      5 C         142.2896  143.4016  161.5841 C.3     1  UNL1        0.0897
      6 C         140.8374  143.7646  161.4867 C.3     1  UNL1        0.0897
      7 C         138.7992  145.1356  162.3330 C.3     1  UNL1        0.0769
      8 C         137.8009  144.4856  163.2445 C.3     1  UNL1        0.0437
      9 C         138.4021  140.2272  164.5691 C.ar    1  UNL1        0.1057
     10 C         138.9683  141.3528  165.3829 C.ar    1  UNL1        0.0180
     11 C         138.7679  142.7723  164.9414 C.ar    1  UNL1       -0.0029
     12 C         138.0013  143.0661  163.6860 C.ar    1  UNL1       -0.0207
     13 C         137.4352  141.9405  162.8722 C.ar    1  UNL1       -0.0029
     14 C         137.6356  140.5210  163.3137 C.ar    1  UNL1        0.0180
     15 C         138.8030  137.3883  165.4522 C.3     1  UNL1        0.1816
     16 S         138.6026  138.8077  165.0106 S.O2    1  UNL1        0.0104
     17 O         139.3411  138.5161  163.7380 O.2     1  UNL1       -0.1686
     18 O         137.8640  139.0993  166.2832 O.2     1  UNL1       -0.1686
     19 C         144.6078  143.6835  162.7225 C.3     1  UNL1        0.0769
     20 C         145.0098  142.3231  163.2103 C.3     1  UNL1        0.0437
     21 C         144.2936  141.7013  164.3724 C.ar    1  UNL1       -0.0204
     22 C         143.9357  142.5357  165.5664 C.ar    1  UNL1        0.0021
     23 C         143.2196  141.9139  166.7285 C.ar    1  UNL1        0.0749
     24 C         142.8613  140.4577  166.6967 C.ar    1  UNL1        0.2900
     25 C         143.2192  139.6232  165.5026 C.ar    1  UNL1        0.0749
     26 C         143.9354  140.2450  164.3405 C.ar    1  UNL1        0.0021
     27 N         142.1452  139.8358  167.8588 N.pl3   1  UNL1        0.0809
     28 O         140.6818  140.0942  168.0632 O.2     1  UNL1        0.0415
     29 O         142.8924  138.9558  168.8164 O.co2   1  UNL1       -0.5760
@<TRIPOS>UNITY_ATOM_ATTR
27 1
charge 1
29 1
charge -1
@<TRIPOS>BOND
     1    15    16    1
     2    16    17    2
     3    16    18    2
     4    16     9    1
     5     9    10   ar
     6    10    11   ar
     7    11    12   ar
     8    12     8    1
     9     8     7    1
    10     7     1    1
    11     1     2    1
    12     2     3    1
    13     3     4    1
    14     4    19    1
    15    19    20    1
    16    20    21    1
    17    21    22   ar
    18    22    23   ar
    19    23    24   ar
    20    24    27    1
    21    27    28    2
    22    27    29    1
    23    24    25   ar
    24    25    26   ar
    25     4     5    1
    26     5     6    1
    27    12    13   ar
    28    13    14   ar
    29    14     9   ar
    30     6     1    1
    31    26    21   ar
@<TRIPOS>MOLECULE
*****
 29 31 0 0 0
SMALL
GASTEIGER

@<TRIPOS>ATOM
      1 N         142.5006  138.5141  164.1322 N.3     1  UNL1       -0.2700
      2 C         142.4440  139.2606  162.8323 C.3     1  UNL1        0.0897
      3 C         141.2699  139.0827  161.9158 C.3     1  UNL1        0.0897
      4 N         140.1524  138.1584  162.2992 N.3     1  UNL1       -0.2700
      5 C         140.2091  137.4120  163.5990 C.3     1  UNL1        0.0897
      6 C         141.3831  137.5898  164.5155 C.3     1  UNL1        0.0897
      7 C         143.6746  138.6919  165.0487 C.3     1  UNL1        0.0769
      8 C         143.5299  138.4138  166.5156 C.3     1  UNL1        0.0437
      9 C         141.1723  141.2285  169.1174 C.ar    1  UNL1        0.1057
     10 C         141.8253  140.0198  169.7195 C.ar    1  UNL1        0.0180
     11 C         142.6111  139.0815  168.8522 C.ar    1  UNL1       -0.0029
     12 C         142.7440  139.3520  167.3828 C.ar    1  UNL1       -0.0207
     13 C         142.0911  140.5608  166.7807 C.ar    1  UNL1       -0.0029
     14 C         141.3052  141.4990  167.6480 C.ar    1  UNL1        0.0180
     15 C         139.6006  143.1049  170.8519 C.3     1  UNL1        0.1816
     16 S         140.3864  142.1667  169.9846 S.O2    1  UNL1        0.0104
     17 O         140.5416  143.2474  168.9561 O.2     1  UNL1       -0.1686
     18 O         140.2313  141.0859  171.0132 O.2     1  UNL1       -0.1686
     19 C         138.9784  137.9806  161.3827 C.3     1  UNL1        0.0769
     20 C         137.7617  138.8426  161.5466 C.3     1  UNL1        0.0437
     21 C         137.8858  140.2066  162.1581 C.ar    1  UNL1       -0.0204
     22 C         137.8895  140.3623  163.6499 C.ar    1  UNL1        0.0021
     23 C         138.0136  141.7263  164.2614 C.ar    1  UNL1        0.0749
     24 C         138.1340  142.9348  163.3810 C.ar    1  UNL1        0.2900
     25 C         138.1302  142.7792  161.8891 C.ar    1  UNL1        0.0749
     26 C         138.0061  141.4151  161.2776 C.ar    1  UNL1        0.0021
     27 N         138.2581  144.2989  163.9925 N.pl3   1  UNL1        0.0809
     28 O         137.4391  144.6583  165.1967 O.2     1  UNL1        0.0415
     29 O         139.2011  145.3035  163.3998 O.co2   1  UNL1       -0.5760
@<TRIPOS>UNITY_ATOM_ATTR
27 1
charge 1
29 1
charge -1
@<TRIPOS>BOND
     1    15    16    1
     2    16    17    2
     3    16    18    2
     4    16     9    1
     5     9    10   ar
     6    10    11   ar
     7    11    12   ar
     8    12     8    1
     9     8     7    1
    10     7     1    1
    11     1     2    1
    12     2     3    1
    13     3     4    1
    14     4    19    1
    15    19    20    1
    16    20    21    1
    17    21    22   ar
    18    22    23   ar
    19    23    24   ar
    20    24    27    1
    21    27    28    2
    22    27    29    1
    23    24    25   ar
    24    25    26   ar
    25     4     5    1
    26     5     6    1
    27    12    13   ar
    28    13    14   ar
    29    14     9   ar
    30     6     1    1
    31    26    21   ar
@<TRIPOS>MOLECULE
*****
 29 31 0 0 0
SMALL
GASTEIGER

@<TRIPOS>ATOM
      1 N         143.0702  143.9115  162.5260 N.3     1  UNL1       -0.2700
      2 C         142.1510  143.1319  161.6329 C.3     1  UNL1        0.0897
      3 C         140.6879  143.4601  161.5925 C.3     1  UNL1        0.0897
      4 N         140.1440  144.5678  162.4452 N.3     1  UNL1       -0.2700
      5 C         141.0631  145.3474  163.3382 C.3     1  UNL1        0.0897
      6 C         142.5262  145.0192  163.3786 C.3     1  UNL1        0.0897
      7 C         144.5333  143.5833  162.5664 C.3     1  UNL1        0.0769
      8 C         145.0083  142.3630  163.2978 C.3     1  UNL1        0.0437
      9 C         142.8132  140.9369  166.9581 C.ar    1  UNL1        0.1057
     10 C         143.0581  139.9956  165.8162 C.ar    1  UNL1        0.0180
     11 C         143.7898  140.4710  164.5961 C.ar    1  UNL1       -0.0029
     12 C         144.2766  141.8876  164.5179 C.ar    1  UNL1       -0.0207
     13 C         144.0317  142.8289  165.6598 C.ar    1  UNL1       -0.0029
     14 C         143.2999  142.3535  166.8799 C.ar    1  UNL1        0.0180
     15 C         141.3498  139.9862  169.3983 C.3     1  UNL1        0.1816
     16 S         142.0815  140.4615  168.1782 S.O2    1  UNL1        0.0104
     17 O         141.3431  139.4570  167.3441 O.2     1  UNL1       -0.1686
     18 O         142.8198  141.4660  169.0124 O.2     1  UNL1       -0.1686
     19 C         138.6809  144.8960  162.4048 C.3     1  UNL1        0.0769
     20 C         137.7370  144.2339  163.3644 C.3     1  UNL1        0.0437
     21 C         138.0039  142.8344  163.8338 C.ar    1  UNL1       -0.0204
     22 C         138.8116  142.6012  165.0759 C.ar    1  UNL1        0.0021
     23 C         139.0786  141.2017  165.5453 C.ar    1  UNL1        0.0749
     24 C         138.5377  140.0355  164.7724 C.ar    1  UNL1        0.2900
     25 C         137.7299  140.2687  163.5301 C.ar    1  UNL1        0.0749
     26 C         137.4630  141.6682  163.0608 C.ar    1  UNL1        0.0021
     27 N         138.8047  138.6361  165.2417 N.pl3   1  UNL1        0.0809
     28 O         139.9160  137.8379  164.6268 O.2     1  UNL1        0.0415
     29 O         137.9603  138.0347  166.3259 O.co2   1  UNL1       -0.5760
@<TRIPOS>UNITY_ATOM_ATTR
27 1
charge 1
29 1
charge -1
@<TRIPOS>BOND
     1    15    16    1
     2    16    17    2
     3    16    18    2
     4    16     9    1
     5     9    10   ar
     6    10    11   ar
     7    11    12   ar
     8    12     8    1
     9     8     7    1
    10     7     1    1
    11     1     2    1
    12     2     3    1
    13     3     4    1
    14     4    19    1
    15    19    20    1
    16    20    21    1
    17    21    22   ar
    18    22    23   ar
    19    23    24   ar
    20    24    27    1
    21    27    28    2
    22    27    29    1
    23    24    25   ar
    24    25    26   ar
    25     4     5    1
    26     5     6    1
    27    12    13   ar
    28    13    14   ar
    29    14     9   ar
    30     6     1    1
    31    26    21   ar
@<TRIPOS>MOLECULE
*****
 29 31 0 0 0
SMALL
GASTEIGER

@<TRIPOS>ATOM
      1 N         138.8339  143.0069  162.5511 N.3     1  UNL1       -0.2700
      2 C         139.5912  142.2575  161.4952 C.3     1  UNL1        0.0897
      3 C         139.2557  140.8244  161.2063 C.3     1  UNL1        0.0897
      4 N         138.1629  140.1406  161.9733 N.3     1  UNL1       -0.2700
      5 C         137.4056  140.8900  163.0291 C.3     1  UNL1        0.0897
      6 C         137.7411  142.3232  163.3180 C.3     1  UNL1        0.0897
      7 C         139.1694  144.4401  162.8400 C.3     1  UNL1        0.0769
      8 C         140.4298  144.7812  163.5784 C.3     1  UNL1        0.0437
      9 C         141.7633  142.2420  167.0460 C.ar    1  UNL1        0.1057
     10 C         140.3924  142.8506  167.0456 C.ar    1  UNL1        0.0180
     11 C         139.9478  143.6970  165.8897 C.ar    1  UNL1       -0.0029
     12 C         140.8743  143.9348  164.7342 C.ar    1  UNL1       -0.0207
     13 C         142.2452  143.3262  164.7347 C.ar    1  UNL1       -0.0029
     14 C         142.6898  142.4799  165.8905 C.ar    1  UNL1        0.0180
     15 C         142.6524  140.5492  169.3577 C.3     1  UNL1        0.1816
     16 S         142.2079  141.3956  168.2018 S.O2    1  UNL1        0.0104
     17 O         141.0032  140.5198  168.0238 O.2     1  UNL1       -0.1686
     18 O         143.4125  142.2715  168.3799 O.2     1  UNL1       -0.1686
     19 C         137.8273  138.7075  161.6843 C.3     1  UNL1        0.0769
     20 C         138.4886  137.6103  162.4649 C.3     1  UNL1        0.0437
     21 C         139.7707  137.8778  163.1960 C.ar    1  UNL1       -0.0204
     22 C         141.0826  137.7537  162.4795 C.ar    1  UNL1        0.0021
     23 C         142.3648  138.0212  163.2106 C.ar    1  UNL1        0.0749
     24 C         142.3350  138.4128  164.6583 C.ar    1  UNL1        0.2900
     25 C         141.0231  138.5369  165.3748 C.ar    1  UNL1        0.0749
     26 C         139.7409  138.2694  164.6437 C.ar    1  UNL1        0.0021
     27 N         143.6172  138.6803  165.3894 N.pl3   1  UNL1        0.0809
     28 O         144.7388  139.3978  164.6986 O.2     1  UNL1        0.0415
     29 O         143.7777  138.2303  166.8112 O.co2   1  UNL1       -0.5760
@<TRIPOS>UNITY_ATOM_ATTR
27 1
charge 1
29 1
charge -1
@<TRIPOS>BOND
     1    15    16    1
     2    16    17    2
     3    16    18    2
     4    16     9    1
     5     9    10   ar
     6    10    11   ar
     7    11    12   ar
     8    12     8    1
     9     8     7    1
    10     7     1    1
    11     1     2    1
    12     2     3    1
    13     3     4    1
    14     4    19    1
    15    19    20    1
    16    20    21    1
    17    21    22   ar
    18    22    23   ar
    19    23    24   ar
    20    24    27    1
    21    27    28    2
    22    27    29    1
    23    24    25   ar
    24    25    26   ar
    25     4     5    1
    26     5     6    1
    27    12    13   ar
    28    13    14   ar
    29    14     9   ar
    30     6     1    1
    31    26    21   ar
