@<TRIPOS>MOLECULE
*****
 26 29 0 0 0
SMALL
GASTEIGER

@<TRIPOS>ATOM
      1 C         141.0427  137.1334  164.1837 C.3     1  UNL1        0.1063
      2 C         141.6061  138.5232  164.1518 C.3     1  UNL1        0.3270
      3 N         142.4934  137.8591  163.1410 N.2     1  UNL1       -0.0293
      4 C         143.5679  138.6478  162.4531 C.2     1  UNL1        0.3199
      5 N         144.4552  137.9837  161.4423 N.pl3   1  UNL1       -0.2463
      6 C         143.7553  140.1007  162.7760 C.ar    1  UNL1        0.1156
      7 C         144.8299  140.8893  162.0882 C.ar    1  UNL1        0.0104
      8 C         145.0172  142.3421  162.4111 C.ar    1  UNL1        0.0004
      9 C         144.1299  143.0062  163.4219 C.ar    1  UNL1        0.0031
     10 C         143.0553  142.2175  164.1097 C.ar    1  UNL1        0.0373
     11 C         142.8680  140.7648  163.7868 C.ar    1  UNL1        0.1501
     12 O         141.7934  139.9760  164.4747 O.3     1  UNL1       -0.4394
     13 H         144.3323  137.0302  161.2304 H       1  UNL1        0.2884
     14 H         145.1605  138.5014  160.9909 H       1  UNL1        0.2884
     15 C         140.5231  138.7047  165.1736 C.ar    1  UNL1        0.0612
     16 C         139.2598  137.9017  165.0783 C.ar    1  UNL1        0.0034
     17 C         138.1768  138.0832  166.1002 C.ar    1  UNL1       -0.0001
     18 C         138.3572  139.0676  167.2175 C.ar    1  UNL1        0.0001
     19 C         139.6206  139.8706  167.3129 C.ar    1  UNL1        0.0029
     20 C         140.7036  139.6892  166.2910 C.ar    1  UNL1        0.0035
     21 C         139.8010  140.8550  168.4302 C.ar    1  UNL1        0.0384
     22 C         140.2491  142.2550  168.1310 C.ar    1  UNL1        0.1022
     23 N         140.4296  143.2394  169.2483 N.ar    1  UNL1       -0.2224
     24 C         140.1621  142.8240  170.6646 C.ar    1  UNL1        0.1989
     25 N         139.7140  141.4241  170.9637 N.ar    1  UNL1       -0.2224
     26 C         139.5335  140.4397  169.8464 C.ar    1  UNL1        0.1022
@<TRIPOS>BOND
     1     1     2    1
     2     2    15    1
     3    15    16   ar
     4    16    17   ar
     5    17    18   ar
     6    18    19   ar
     7    19    21    1
     8    21    22   ar
     9    22    23   ar
    10    23    24   ar
    11    24    25   ar
    12    25    26   ar
    13    19    20   ar
    14     2     3    1
    15     3     4    2
    16     4     5    1
    17     4     6    1
    18     6     7   ar
    19     7     8   ar
    20     8     9   ar
    21     9    10   ar
    22    10    11   ar
    23    11    12    1
    24    12     2    1
    25    20    15   ar
    26    11     6   ar
    27    26    21   ar
    28     5    13    1
    29     5    14    1
@<TRIPOS>MOLECULE
*****
 26 29 0 0 0
SMALL
GASTEIGER

@<TRIPOS>ATOM
      1 C         138.0337  139.1668  167.1545 C.3     1  UNL1        0.1063
      2 C         139.2976  139.9561  167.3270 C.3     1  UNL1        0.3270
      3 N         139.0666  139.5213  168.7439 N.2     1  UNL1       -0.0293
      4 C         140.0272  139.9316  169.8203 C.2     1  UNL1        0.3199
      5 N         139.7963  139.4969  171.2372 N.pl3   1  UNL1       -0.2463
      6 C         141.2189  140.7767  169.4799 C.ar    1  UNL1        0.1156
      7 C         142.1796  141.1870  170.5563 C.ar    1  UNL1        0.0104
      8 C         143.3712  142.0320  170.2159 C.ar    1  UNL1        0.0004
      9 C         143.6021  142.4667  168.7990 C.ar    1  UNL1        0.0031
     10 C         142.6415  142.0564  167.7225 C.ar    1  UNL1        0.0373
     11 C         141.4499  141.2114  168.0630 C.ar    1  UNL1        0.1501
     12 O         140.4892  140.8011  166.9865 O.3     1  UNL1       -0.4394
     13 H         139.0141  138.9423  171.4607 H       1  UNL1        0.2884
     14 H         140.4268  139.7662  171.9438 H       1  UNL1        0.2884
     15 C         139.0897  140.1167  165.8502 C.ar    1  UNL1        0.0612
     16 C         138.6758  138.9390  165.0185 C.ar    1  UNL1        0.0034
     17 C         138.4679  139.0996  163.5418 C.ar    1  UNL1       -0.0001
     18 C         138.6738  140.4380  162.8965 C.ar    1  UNL1        0.0001
     19 C         139.0876  141.6158  163.7281 C.ar    1  UNL1        0.0029
     20 C         139.2956  141.4552  165.2050 C.ar    1  UNL1        0.0035
     21 C         139.2936  142.9542  163.0830 C.ar    1  UNL1        0.0384
     22 C         138.1285  143.8778  162.8835 C.ar    1  UNL1        0.1022
     23 N         138.3345  145.2162  162.2384 N.ar    1  UNL1       -0.2224
     24 C         139.7053  145.6311  161.7928 C.ar    1  UNL1        0.1989
     25 N         140.8703  144.7075  161.9923 N.ar    1  UNL1       -0.2224
     26 C         140.6644  143.3691  162.6374 C.ar    1  UNL1        0.1022
@<TRIPOS>BOND
     1     1     2    1
     2     2    15    1
     3    15    16   ar
     4    16    17   ar
     5    17    18   ar
     6    18    19   ar
     7    19    21    1
     8    21    22   ar
     9    22    23   ar
    10    23    24   ar
    11    24    25   ar
    12    25    26   ar
    13    19    20   ar
    14     2     3    1
    15     3     4    2
    16     4     5    1
    17     4     6    1
    18     6     7   ar
    19     7     8   ar
    20     8     9   ar
    21     9    10   ar
    22    10    11   ar
    23    11    12    1
    24    12     2    1
    25    20    15   ar
    26    11     6   ar
    27    26    21   ar
    28     5    13    1
    29     5    14    1
@<TRIPOS>MOLECULE
*****
 26 29 0 0 0
SMALL
GASTEIGER

@<TRIPOS>ATOM
      1 C         137.8708  138.6453  166.7396 C.3     1  UNL1        0.1063
      2 C         139.1244  139.4636  166.8330 C.3     1  UNL1        0.3270
      3 N         138.7180  139.4439  168.2768 N.2     1  UNL1       -0.0293
      4 C         139.5551  140.1506  169.3013 C.2     1  UNL1        0.3199
      5 N         139.1486  140.1309  170.7451 N.pl3   1  UNL1       -0.2463
      6 C         140.7987  140.8772  168.8822 C.ar    1  UNL1        0.1156
      7 C         141.6358  141.5840  169.9067 C.ar    1  UNL1        0.0104
      8 C         142.8793  142.3105  169.4875 C.ar    1  UNL1        0.0004
      9 C         143.2857  142.3302  168.0438 C.ar    1  UNL1        0.0031
     10 C         142.4487  141.6235  167.0192 C.ar    1  UNL1        0.0373
     11 C         141.2051  140.8970  167.4384 C.ar    1  UNL1        0.1501
     12 O         140.3680  140.1902  166.4138 O.3     1  UNL1       -0.4394
     13 H         138.3325  139.6540  171.0202 H       1  UNL1        0.2884
     14 H         139.6981  140.5948  171.4175 H       1  UNL1        0.2884
     15 C         139.0955  139.1992  165.3569 C.ar    1  UNL1        0.0612
     16 C         138.9408  137.7963  164.8491 C.ar    1  UNL1        0.0034
     17 C         138.9119  137.5319  163.3729 C.ar    1  UNL1       -0.0001
     18 C         139.0377  138.6704  162.4044 C.ar    1  UNL1        0.0001
     19 C         139.1924  140.0733  162.9121 C.ar    1  UNL1        0.0029
     20 C         139.2213  140.3378  164.3883 C.ar    1  UNL1        0.0035
     21 C         139.3182  141.2118  161.9436 C.ar    1  UNL1        0.0384
     22 C         140.6458  141.5201  161.3170 C.ar    1  UNL1        0.1022
     23 N         140.7716  142.6586  160.3486 N.ar    1  UNL1       -0.2224
     24 C         139.5700  143.4889  160.0068 C.ar    1  UNL1        0.1989
     25 N         138.2425  143.1806  160.6334 N.ar    1  UNL1       -0.2224
     26 C         138.1167  142.0421  161.6018 C.ar    1  UNL1        0.1022
@<TRIPOS>BOND
     1     1     2    1
     2     2    15    1
     3    15    16   ar
     4    16    17   ar
     5    17    18   ar
     6    18    19   ar
     7    19    21    1
     8    21    22   ar
     9    22    23   ar
    10    23    24   ar
    11    24    25   ar
    12    25    26   ar
    13    19    20   ar
    14     2     3    1
    15     3     4    2
    16     4     5    1
    17     4     6    1
    18     6     7   ar
    19     7     8   ar
    20     8     9   ar
    21     9    10   ar
    22    10    11   ar
    23    11    12    1
    24    12     2    1
    25    20    15   ar
    26    11     6   ar
    27    26    21   ar
    28     5    13    1
    29     5    14    1
@<TRIPOS>MOLECULE
*****
 26 29 0 0 0
SMALL
GASTEIGER

@<TRIPOS>ATOM
      1 C         142.4805  138.4024  165.2699 C.3     1  UNL1        0.1063
      2 C         141.6770  138.4733  164.0053 C.3     1  UNL1        0.3270
      3 N         143.0492  138.2792  163.4315 N.2     1  UNL1       -0.0293
      4 C         143.2383  138.2149  161.9449 C.2     1  UNL1        0.3199
      5 N         144.6106  138.0209  161.3710 N.pl3   1  UNL1       -0.2463
      6 C         142.0551  138.3447  161.0320 C.ar    1  UNL1        0.1156
      7 C         142.2442  138.2804  159.5454 C.ar    1  UNL1        0.0104
      8 C         141.0610  138.4101  158.6326 C.ar    1  UNL1        0.0004
      9 C         139.6888  138.6041  159.2064 C.ar    1  UNL1        0.0031
     10 C         139.4997  138.6684  160.6930 C.ar    1  UNL1        0.0373
     11 C         140.6829  138.5387  161.6058 C.ar    1  UNL1        0.1501
     12 O         140.4938  138.6030  163.0925 O.3     1  UNL1       -0.4394
     13 H         145.3871  137.9358  161.9701 H       1  UNL1        0.2884
     14 H         144.7347  137.9787  160.3953 H       1  UNL1        0.2884
     15 C         140.5838  138.6426  165.0183 C.ar    1  UNL1        0.0612
     16 C         139.3449  137.8015  164.9326 C.ar    1  UNL1        0.0034
     17 C         138.2517  137.9709  165.9456 C.ar    1  UNL1       -0.0001
     18 C         138.3974  138.9815  167.0444 C.ar    1  UNL1        0.0001
     19 C         139.6363  139.8227  167.1302 C.ar    1  UNL1        0.0029
     20 C         140.7296  139.6534  166.1171 C.ar    1  UNL1        0.0035
     21 C         139.7821  140.8334  168.2289 C.ar    1  UNL1        0.0384
     22 C         140.4581  142.1446  167.9569 C.ar    1  UNL1        0.1022
     23 N         140.6039  143.1552  169.0557 N.ar    1  UNL1       -0.2224
     24 C         140.0738  142.8548  170.4263 C.ar    1  UNL1        0.1989
     25 N         139.3979  141.5436  170.6983 N.ar    1  UNL1       -0.2224
     26 C         139.2521  140.5330  169.5996 C.ar    1  UNL1        0.1022
@<TRIPOS>BOND
     1     1     2    1
     2     2    15    1
     3    15    16   ar
     4    16    17   ar
     5    17    18   ar
     6    18    19   ar
     7    19    21    1
     8    21    22   ar
     9    22    23   ar
    10    23    24   ar
    11    24    25   ar
    12    25    26   ar
    13    19    20   ar
    14     2     3    1
    15     3     4    2
    16     4     5    1
    17     4     6    1
    18     6     7   ar
    19     7     8   ar
    20     8     9   ar
    21     9    10   ar
    22    10    11   ar
    23    11    12    1
    24    12     2    1
    25    20    15   ar
    26    11     6   ar
    27    26    21   ar
    28     5    13    1
    29     5    14    1
@<TRIPOS>MOLECULE
*****
 26 29 0 0 0
SMALL
GASTEIGER

@<TRIPOS>ATOM
      1 C         137.8220  141.7920  163.9972 C.3     1  UNL1        0.1063
      2 C         139.2453  142.2025  164.2335 C.3     1  UNL1        0.3270
      3 N         138.9140  143.0752  163.0594 N.2     1  UNL1       -0.0293
      4 C         139.9493  144.0059  162.5009 C.2     1  UNL1        0.3199
      5 N         139.6180  144.8787  161.3268 N.pl3   1  UNL1       -0.2463
      6 C         141.3160  144.0638  163.1164 C.ar    1  UNL1        0.1156
      7 C         142.3513  144.9944  162.5579 C.ar    1  UNL1        0.0104
      8 C         143.7179  145.0523  163.1735 C.ar    1  UNL1        0.0004
      9 C         144.0492  144.1795  164.3476 C.ar    1  UNL1        0.0031
     10 C         143.0139  143.2489  164.9061 C.ar    1  UNL1        0.0373
     11 C         141.6473  143.1910  164.2905 C.ar    1  UNL1        0.1501
     12 O         140.6119  142.2603  164.8491 O.3     1  UNL1       -0.4394
     13 H         138.7210  144.8407  160.9228 H       1  UNL1        0.2884
     14 H         140.2975  145.4895  160.9602 H       1  UNL1        0.2884
     15 C         139.0823  141.1872  165.3255 C.ar    1  UNL1        0.0612
     16 C         138.0991  140.0656  165.1663 C.ar    1  UNL1        0.0034
     17 C         137.9361  139.0503  166.2583 C.ar    1  UNL1       -0.0001
     18 C         138.7564  139.1565  167.5096 C.ar    1  UNL1        0.0001
     19 C         139.7397  140.2780  167.6690 C.ar    1  UNL1        0.0029
     20 C         139.9027  141.2933  166.5769 C.ar    1  UNL1        0.0035
     21 C         140.5600  140.3842  168.9202 C.ar    1  UNL1        0.0384
     22 C         142.0046  139.9801  168.9065 C.ar    1  UNL1        0.1022
     23 N         142.8249  140.0863  170.1578 N.ar    1  UNL1       -0.2224
     24 C         142.2009  140.5966  171.4227 C.ar    1  UNL1        0.1989
     25 N         140.7564  141.0008  171.4364 N.ar    1  UNL1       -0.2224
     26 C         139.9360  140.8945  170.1852 C.ar    1  UNL1        0.1022
@<TRIPOS>BOND
     1     1     2    1
     2     2    15    1
     3    15    16   ar
     4    16    17   ar
     5    17    18   ar
     6    18    19   ar
     7    19    21    1
     8    21    22   ar
     9    22    23   ar
    10    23    24   ar
    11    24    25   ar
    12    25    26   ar
    13    19    20   ar
    14     2     3    1
    15     3     4    2
    16     4     5    1
    17     4     6    1
    18     6     7   ar
    19     7     8   ar
    20     8     9   ar
    21     9    10   ar
    22    10    11   ar
    23    11    12    1
    24    12     2    1
    25    20    15   ar
    26    11     6   ar
    27    26    21   ar
    28     5    13    1
    29     5    14    1
@<TRIPOS>MOLECULE
*****
 26 29 0 0 0
SMALL
GASTEIGER

@<TRIPOS>ATOM
      1 C         143.6704  138.0525  166.4726 C.3     1  UNL1        0.1063
      2 C         142.8738  139.2854  166.7812 C.3     1  UNL1        0.3270
      3 N         143.1924  138.8260  168.1731 N.2     1  UNL1       -0.0293
      4 C         142.6998  139.6103  169.3530 C.2     1  UNL1        0.3199
      5 N         143.0183  139.1508  170.7449 N.pl3   1  UNL1       -0.2463
      6 C         141.8886  140.8541  169.1410 C.ar    1  UNL1        0.1156
      7 C         141.3960  141.6385  170.3209 C.ar    1  UNL1        0.0104
      8 C         140.5849  142.8822  170.1088 C.ar    1  UNL1        0.0004
      9 C         140.2664  143.3417  168.7169 C.ar    1  UNL1        0.0031
     10 C         140.7589  142.5574  167.5370 C.ar    1  UNL1        0.0373
     11 C         141.5701  141.3136  167.7491 C.ar    1  UNL1        0.1501
     12 O         142.0627  140.5292  166.5691 O.3     1  UNL1       -0.4394
     13 H         143.5507  138.3344  170.8840 H       1  UNL1        0.2884
     14 H         142.6950  139.6656  171.5193 H       1  UNL1        0.2884
     15 C         142.8319  139.3167  165.2821 C.ar    1  UNL1        0.0612
     16 C         144.1093  139.3167  164.4959 C.ar    1  UNL1        0.0034
     17 C         144.0674  139.3480  162.9969 C.ar    1  UNL1       -0.0001
     18 C         142.7481  139.3793  162.2839 C.ar    1  UNL1        0.0001
     19 C         141.4706  139.3793  163.0700 C.ar    1  UNL1        0.0029
     20 C         141.5125  139.3480  164.5692 C.ar    1  UNL1        0.0035
     21 C         140.1512  139.4106  162.3572 C.ar    1  UNL1        0.0384
     22 C         139.2197  138.2387  162.4520 C.ar    1  UNL1        0.1022
     23 N         137.9003  138.2700  161.7391 N.ar    1  UNL1       -0.2224
     24 C         137.5124  139.4730  160.9315 C.ar    1  UNL1        0.1989
     25 N         138.4439  140.6449  160.8368 N.ar    1  UNL1       -0.2224
     26 C         139.7633  140.6136  161.5496 C.ar    1  UNL1        0.1022
@<TRIPOS>BOND
     1     1     2    1
     2     2    15    1
     3    15    16   ar
     4    16    17   ar
     5    17    18   ar
     6    18    19   ar
     7    19    21    1
     8    21    22   ar
     9    22    23   ar
    10    23    24   ar
    11    24    25   ar
    12    25    26   ar
    13    19    20   ar
    14     2     3    1
    15     3     4    2
    16     4     5    1
    17     4     6    1
    18     6     7   ar
    19     7     8   ar
    20     8     9   ar
    21     9    10   ar
    22    10    11   ar
    23    11    12    1
    24    12     2    1
    25    20    15   ar
    26    11     6   ar
    27    26    21   ar
    28     5    13    1
    29     5    14    1
@<TRIPOS>MOLECULE
*****
 26 29 0 0 0
SMALL
GASTEIGER

@<TRIPOS>ATOM
      1 C         138.4170  138.6596  166.1009 C.3     1  UNL1        0.1063
      2 C         139.6075  139.2578  166.7899 C.3     1  UNL1        0.3270
      3 N         138.5994  139.3344  167.8980 N.2     1  UNL1       -0.0293
      4 C         138.9884  139.9105  169.2272 C.2     1  UNL1        0.3199
      5 N         137.9803  139.9872  170.3353 N.pl3   1  UNL1       -0.2463
      6 C         140.3854  140.4100  169.4483 C.ar    1  UNL1        0.1156
      7 C         140.7744  140.9861  170.7775 C.ar    1  UNL1        0.0104
      8 C         142.1714  141.4855  170.9986 C.ar    1  UNL1        0.0004
      9 C         143.1794  141.4088  169.8905 C.ar    1  UNL1        0.0031
     10 C         142.7905  140.8327  168.5613 C.ar    1  UNL1        0.0373
     11 C         141.3935  140.3333  168.3402 C.ar    1  UNL1        0.1501
     12 O         141.0045  139.7572  167.0110 O.3     1  UNL1       -0.4394
     13 H         137.0634  139.6594  170.1902 H       1  UNL1        0.2884
     14 H         138.2356  140.3653  171.2077 H       1  UNL1        0.2884
     15 C         140.2021  138.9733  165.4425 C.ar    1  UNL1        0.0612
     16 C         139.8093  137.7330  164.6960 C.ar    1  UNL1        0.0034
     17 C         140.4039  137.4486  163.3487 C.ar    1  UNL1       -0.0001
     18 C         141.3914  138.4045  162.7477 C.ar    1  UNL1        0.0001
     19 C         141.7842  139.6449  163.4940 C.ar    1  UNL1        0.0029
     20 C         141.1896  139.9293  164.8415 C.ar    1  UNL1        0.0035
     21 C         142.7716  140.6009  162.8931 C.ar    1  UNL1        0.0384
     22 C         142.2888  141.8403  162.1997 C.ar    1  UNL1        0.1022
     23 N         143.2762  142.7963  161.5988 N.ar    1  UNL1       -0.2224
     24 C         144.7462  142.5129  161.6913 C.ar    1  UNL1        0.1989
     25 N         145.2290  141.2735  162.3846 N.ar    1  UNL1       -0.2224
     26 C         144.2416  140.3175  162.9856 C.ar    1  UNL1        0.1022
@<TRIPOS>BOND
     1     1     2    1
     2     2    15    1
     3    15    16   ar
     4    16    17   ar
     5    17    18   ar
     6    18    19   ar
     7    19    21    1
     8    21    22   ar
     9    22    23   ar
    10    23    24   ar
    11    24    25   ar
    12    25    26   ar
    13    19    20   ar
    14     2     3    1
    15     3     4    2
    16     4     5    1
    17     4     6    1
    18     6     7   ar
    19     7     8   ar
    20     8     9   ar
    21     9    10   ar
    22    10    11   ar
    23    11    12    1
    24    12     2    1
    25    20    15   ar
    26    11     6   ar
    27    26    21   ar
    28     5    13    1
    29     5    14    1
@<TRIPOS>MOLECULE
*****
 26 29 0 0 0
SMALL
GASTEIGER

@<TRIPOS>ATOM
      1 C         138.3086  144.1169  164.9027 C.3     1  UNL1        0.1063
      2 C         139.2803  143.5962  163.8854 C.3     1  UNL1        0.3270
      3 N         138.9432  144.9216  163.2692 N.2     1  UNL1       -0.0293
      4 C         139.5776  145.3288  161.9724 C.2     1  UNL1        0.3199
      5 N         139.2405  146.6541  161.3562 N.pl3   1  UNL1       -0.2463
      6 C         140.5492  144.4106  161.2918 C.ar    1  UNL1        0.1156
      7 C         141.1836  144.8178  159.9950 C.ar    1  UNL1        0.0104
      8 C         142.1551  143.8997  159.3145 C.ar    1  UNL1        0.0004
      9 C         142.4921  142.5743  159.9308 C.ar    1  UNL1        0.0031
     10 C         141.8577  142.1671  161.2276 C.ar    1  UNL1        0.0373
     11 C         140.8862  143.0852  161.9081 C.ar    1  UNL1        0.1501
     12 O         140.2518  142.6780  163.2049 O.3     1  UNL1       -0.4394
     13 H         138.6029  147.2568  161.8028 H       1  UNL1        0.2884
     14 H         139.6569  146.9214  160.5050 H       1  UNL1        0.2884
     15 C         139.2799  142.4517  164.8549 C.ar    1  UNL1        0.0612
     16 C         138.6195  141.1564  164.4860 C.ar    1  UNL1        0.0034
     17 C         138.6192  140.0119  165.4556 C.ar    1  UNL1       -0.0001
     18 C         139.2793  140.1626  166.7941 C.ar    1  UNL1        0.0001
     19 C         139.9397  141.4578  167.1631 C.ar    1  UNL1        0.0029
     20 C         139.9400  142.6024  166.1935 C.ar    1  UNL1        0.0035
     21 C         140.5997  141.6086  168.5015 C.ar    1  UNL1        0.0384
     22 C         140.8261  142.9755  169.0763 C.ar    1  UNL1        0.1022
     23 N         141.4862  143.1263  170.4148 N.ar    1  UNL1       -0.2224
     24 C         141.9199  141.9103  171.1785 C.ar    1  UNL1        0.1989
     25 N         141.6936  140.5434  170.6037 N.ar    1  UNL1       -0.2224
     26 C         141.0335  140.3926  169.2652 C.ar    1  UNL1        0.1022
@<TRIPOS>BOND
     1     1     2    1
     2     2    15    1
     3    15    16   ar
     4    16    17   ar
     5    17    18   ar
     6    18    19   ar
     7    19    21    1
     8    21    22   ar
     9    22    23   ar
    10    23    24   ar
    11    24    25   ar
    12    25    26   ar
    13    19    20   ar
    14     2     3    1
    15     3     4    2
    16     4     5    1
    17     4     6    1
    18     6     7   ar
    19     7     8   ar
    20     8     9   ar
    21     9    10   ar
    22    10    11   ar
    23    11    12    1
    24    12     2    1
    25    20    15   ar
    26    11     6   ar
    27    26    21   ar
    28     5    13    1
    29     5    14    1
@<TRIPOS>MOLECULE
*****
 26 29 0 0 0
SMALL
GASTEIGER

@<TRIPOS>ATOM
      1 C         144.1453  141.6801  163.3871 C.3     1  UNL1        0.1063
      2 C         142.7079  142.0181  163.6509 C.3     1  UNL1        0.3270
      3 N         142.9963  142.9671  162.5256 N.2     1  UNL1       -0.0293
      4 C         141.9206  143.8838  162.0232 C.2     1  UNL1        0.3199
      5 N         142.2091  144.8327  160.8979 N.pl3   1  UNL1       -0.2463
      6 C         140.5563  143.8515  162.6459 C.ar    1  UNL1        0.1156
      7 C         139.4806  144.7681  162.1435 C.ar    1  UNL1        0.0104
      8 C         138.1165  144.7358  162.7663 C.ar    1  UNL1        0.0004
      9 C         137.8280  143.7869  163.8915 C.ar    1  UNL1        0.0031
     10 C         138.9037  142.8702  164.3940 C.ar    1  UNL1        0.0373
     11 C         140.2679  142.9025  163.7712 C.ar    1  UNL1        0.1501
     12 O         141.3437  141.9858  164.2737 O.3     1  UNL1       -0.4394
     13 H         143.1045  144.8539  160.4891 H       1  UNL1        0.2884
     14 H         141.5030  145.4344  160.5681 H       1  UNL1        0.2884
     15 C         142.9186  140.9518  164.6845 C.ar    1  UNL1        0.0612
     16 C         143.7437  139.7426  164.3573 C.ar    1  UNL1        0.0034
     17 C         143.9544  138.6763  165.3910 C.ar    1  UNL1       -0.0001
     18 C         143.3400  138.8190  166.7519 C.ar    1  UNL1        0.0001
     19 C         142.5149  140.0281  167.0792 C.ar    1  UNL1        0.0029
     20 C         142.3041  141.0946  166.0455 C.ar    1  UNL1        0.0035
     21 C         141.9004  140.1710  168.4401 C.ar    1  UNL1        0.0384
     22 C         142.7648  140.4927  169.6231 C.ar    1  UNL1        0.1022
     23 N         142.1503  140.6355  170.9840 N.ar    1  UNL1       -0.2224
     24 C         140.6717  140.4567  171.1619 C.ar    1  UNL1        0.1989
     25 N         139.8074  140.1351  169.9789 N.ar    1  UNL1       -0.2224
     26 C         140.4218  139.9922  168.6180 C.ar    1  UNL1        0.1022
@<TRIPOS>BOND
     1     1     2    1
     2     2    15    1
     3    15    16   ar
     4    16    17   ar
     5    17    18   ar
     6    18    19   ar
     7    19    21    1
     8    21    22   ar
     9    22    23   ar
    10    23    24   ar
    11    24    25   ar
    12    25    26   ar
    13    19    20   ar
    14     2     3    1
    15     3     4    2
    16     4     5    1
    17     4     6    1
    18     6     7   ar
    19     7     8   ar
    20     8     9   ar
    21     9    10   ar
    22    10    11   ar
    23    11    12    1
    24    12     2    1
    25    20    15   ar
    26    11     6   ar
    27    26    21   ar
    28     5    13    1
    29     5    14    1
