@<TRIPOS>MOLECULE
*****
 31 35 0 0 0
SMALL
GASTEIGER

@<TRIPOS>ATOM
      1 C         137.8397  138.8831  166.5081 C.3     1  UNL1        0.0285
      2 C         139.0313  139.6424  166.0045 C.3     1  UNL1        0.1321
      3 C         139.2911  139.7387  164.5304 C.3     1  UNL1        0.2279
      4 O         140.4826  140.4980  164.0268 O.3     1  UNL1       -0.4707
      5 C         141.4145  141.1610  164.9973 C.ar    1  UNL1        0.1697
      6 C         142.6060  141.9203  164.4938 C.ar    1  UNL1        0.1116
      7 C         143.5379  142.5833  165.4643 C.ar    1  UNL1        0.1564
      8 F         144.7294  143.3426  164.9607 F       1  UNL1       -0.2028
      9 C         143.2781  142.4871  166.9386 C.ar    1  UNL1        0.0326
     10 C         142.0865  141.7278  167.4422 C.ar    1  UNL1        0.0214
     11 C         141.8268  141.6315  168.9163 C.ar    1  UNL1        0.0075
     12 C         140.6352  140.8722  169.4199 C.ar    1  UNL1        0.0702
     13 C         139.7034  140.2092  168.4494 C.ar    1  UNL1        0.2620
     14 O         138.5118  139.4499  168.9529 O.2     1  UNL1       -0.2669
     15 N         139.9631  140.3054  166.9751 N.ar    1  UNL1       -0.2909
     16 C         141.1547  141.0647  166.4715 C.ar    1  UNL1        0.0980
     17 N         142.8658  142.0166  163.0196 N.pl3   1  UNL1       -0.3009
     18 C         143.2376  140.8802  162.1137 C.3     1  UNL1        0.0948
     19 C         143.4010  141.4274  160.7267 C.3     1  UNL1        0.0629
     20 C         143.1302  142.9020  160.7752 C.3     1  UNL1        0.1377
     21 C         142.7994  143.2661  162.1924 C.3     1  UNL1        0.1206
     22 O         143.2197  143.7226  159.5228 O.3     1  UNL1       -0.3544
     23 C         143.5801  143.0687  158.2219 C.3     1  UNL1        0.1435
     24 C         143.8509  141.5942  158.1733 C.3     1  UNL1        0.0477
     25 C         143.7613  140.7735  159.4257 C.3     1  UNL1        0.0573
     26 N         144.0322  139.2989  159.3771 N.3     1  UNL1       -0.3220
     27 H         144.2601  139.0264  158.4210 H       1  UNL1        0.1188
     28 H         143.2039  138.7907  159.6873 H       1  UNL1        0.1188
     29 C         140.3755  140.7759  170.8942 C.2     1  UNL1        0.0775
     30 O         139.8425  139.5022  171.4803 O.co2   1  UNL1       -0.5444
     31 O         140.6487  141.9535  171.7823 O.co2   1  UNL1       -0.5444
@<TRIPOS>UNITY_ATOM_ATTR
30 1
charge -1
@<TRIPOS>BOND
     1     2     1    1
     2     2     3    1
     3     3     4    1
     4     4     5    1
     5     5     6   ar
     6     6    17    1
     7    17    18    1
     8    19    18    1
     9    19    20    1
    10    20    21    1
    11    20    22    1
    12    22    23    1
    13    23    24    1
    14    24    25    1
    15    25    26    1
    16     6     7   ar
    17     7     8    1
    18     7     9   ar
    19     9    10   ar
    20    10    11   ar
    21    11    12   ar
    22    12    29    1
    23    29    30   ar
    24    29    31   ar
    25    12    13   ar
    26    13    14    2
    27    13    15   ar
    28    15    16   ar
    29    15     2    1
    30    16     5   ar
    31    21    17    1
    32    16    10   ar
    33    25    19    1
    34    26    27    1
    35    26    28    1
@<TRIPOS>MOLECULE
*****
 31 35 0 0 0
SMALL
GASTEIGER

@<TRIPOS>ATOM
      1 C         143.3742  142.5269  167.0677 C.3     1  UNL1        0.0285
      2 C         142.5931  141.6127  166.1709 C.3     1  UNL1        0.1321
      3 C         143.0198  141.4147  164.7466 C.3     1  UNL1        0.2279
      4 O         142.2388  140.5006  163.8498 O.3     1  UNL1       -0.4707
      5 C         141.0309  139.7844  164.3772 C.ar    1  UNL1        0.1697
      6 C         140.2498  138.8703  163.4804 C.ar    1  UNL1        0.1116
      7 C         139.0420  138.1542  164.0079 C.ar    1  UNL1        0.1564
      8 F         138.2609  137.2400  163.1111 F       1  UNL1       -0.2028
      9 C         138.6152  138.3522  165.4323 C.ar    1  UNL1        0.0326
     10 C         139.3963  139.2663  166.3291 C.ar    1  UNL1        0.0214
     11 C         138.9695  139.4644  167.7534 C.ar    1  UNL1        0.0075
     12 C         139.7506  140.3785  168.6502 C.ar    1  UNL1        0.0702
     13 C         140.9585  141.0946  168.1227 C.ar    1  UNL1        0.2620
     14 O         141.7395  142.0087  169.0195 O.2     1  UNL1       -0.2669
     15 N         141.3853  140.8966  166.6983 N.ar    1  UNL1       -0.2909
     16 C         140.6042  139.9825  165.8015 C.ar    1  UNL1        0.0980
     17 N         140.6766  138.6723  162.0562 N.pl3   1  UNL1       -0.3009
     18 C         139.8457  138.9541  160.8394 C.3     1  UNL1        0.0948
     19 C         140.6647  138.6137  159.6298 C.3     1  UNL1        0.0629
     20 C         142.0018  138.1215  160.0988 C.3     1  UNL1        0.1377
     21 C         142.0092  138.1577  161.5984 C.3     1  UNL1        0.1206
     22 O         143.0399  137.7039  159.0998 O.3     1  UNL1       -0.3544
     23 C         142.7409  137.7785  157.6318 C.3     1  UNL1        0.1435
     24 C         141.4039  138.2707  157.1628 C.3     1  UNL1        0.0477
     25 C         140.3657  138.6883  158.1618 C.3     1  UNL1        0.0573
     26 N         139.0287  139.1805  157.6927 N.3     1  UNL1       -0.3220
     27 H         138.9992  139.1651  156.6733 H       1  UNL1        0.1188
     28 H         138.8827  140.1345  158.0227 H       1  UNL1        0.1188
     29 C         139.3238  140.5765  170.0745 C.2     1  UNL1        0.0775
     30 O         138.9219  141.9396  170.5544 O.co2   1  UNL1       -0.5444
     31 O         139.2989  139.4113  171.0189 O.co2   1  UNL1       -0.5444
@<TRIPOS>UNITY_ATOM_ATTR
30 1
charge -1
@<TRIPOS>BOND
     1     2     1    1
     2     2     3    1
     3     3     4    1
     4     4     5    1
     5     5     6   ar
     6     6    17    1
     7    17    18    1
     8    19    18    1
     9    19    20    1
    10    20    21    1
    11    20    22    1
    12    22    23    1
    13    23    24    1
    14    24    25    1
    15    25    26    1
    16     6     7   ar
    17     7     8    1
    18     7     9   ar
    19     9    10   ar
    20    10    11   ar
    21    11    12   ar
    22    12    29    1
    23    29    30   ar
    24    29    31   ar
    25    12    13   ar
    26    13    14    2
    27    13    15   ar
    28    15    16   ar
    29    15     2    1
    30    16     5   ar
    31    21    17    1
    32    16    10   ar
    33    25    19    1
    34    26    27    1
    35    26    28    1
@<TRIPOS>MOLECULE
*****
 31 35 0 0 0
SMALL
GASTEIGER

@<TRIPOS>ATOM
      1 C         138.0363  138.8373  166.9090 C.3     1  UNL1        0.0285
      2 C         139.2033  139.5357  166.2763 C.3     1  UNL1        0.1321
      3 C         139.4849  139.3517  164.8146 C.3     1  UNL1        0.2279
      4 O         140.6519  140.0501  164.1819 O.3     1  UNL1       -0.4707
      5 C         141.5372  140.9326  165.0109 C.ar    1  UNL1        0.1697
      6 C         142.7042  141.6310  164.3782 C.ar    1  UNL1        0.1116
      7 C         143.5896  142.5135  165.2072 C.ar    1  UNL1        0.1564
      8 F         144.7566  143.2120  164.5745 F       1  UNL1       -0.2028
      9 C         143.3079  142.6976  166.6691 C.ar    1  UNL1        0.0326
     10 C         142.1409  141.9992  167.3018 C.ar    1  UNL1        0.0214
     11 C         141.8593  142.1832  168.7635 C.ar    1  UNL1        0.0075
     12 C         140.6923  141.4848  169.3962 C.ar    1  UNL1        0.0702
     13 C         139.8070  140.6023  168.5672 C.ar    1  UNL1        0.2620
     14 O         138.6400  139.9039  169.1999 O.2     1  UNL1       -0.2669
     15 N         140.0886  140.4182  167.1054 N.ar    1  UNL1       -0.2909
     16 C         141.2556  141.1167  166.4727 C.ar    1  UNL1        0.0980
     17 N         142.9859  141.4470  162.9165 N.pl3   1  UNL1       -0.3009
     18 C         142.8491  142.4963  161.8532 C.3     1  UNL1        0.0948
     19 C         143.2325  141.8792  160.5409 C.3     1  UNL1        0.0629
     20 C         143.6062  140.4485  160.7930 C.3     1  UNL1        0.1377
     21 C         143.4538  140.1814  162.2612 C.3     1  UNL1        0.1206
     22 O         144.0369  139.5738  159.6531 O.3     1  UNL1       -0.3544
     23 C         144.0940  140.1297  158.2611 C.3     1  UNL1        0.1435
     24 C         143.7203  141.5604  158.0090 C.3     1  UNL1        0.0477
     25 C         143.2895  142.4351  159.1489 C.3     1  UNL1        0.0573
     26 N         142.9159  143.8658  158.8967 N.3     1  UNL1       -0.3220
     27 H         143.0118  144.0720  157.9024 H       1  UNL1        0.1188
     28 H         143.5322  144.4775  159.4319 H       1  UNL1        0.1188
     29 C         140.4107  141.6689  170.8581 C.2     1  UNL1        0.0775
     30 O         139.7038  142.9025  171.3361 O.co2   1  UNL1       -0.5444
     31 O         140.8359  140.6193  171.8417 O.co2   1  UNL1       -0.5444
@<TRIPOS>UNITY_ATOM_ATTR
30 1
charge -1
@<TRIPOS>BOND
     1     2     1    1
     2     2     3    1
     3     3     4    1
     4     4     5    1
     5     5     6   ar
     6     6    17    1
     7    17    18    1
     8    19    18    1
     9    19    20    1
    10    20    21    1
    11    20    22    1
    12    22    23    1
    13    23    24    1
    14    24    25    1
    15    25    26    1
    16     6     7   ar
    17     7     8    1
    18     7     9   ar
    19     9    10   ar
    20    10    11   ar
    21    11    12   ar
    22    12    29    1
    23    29    30   ar
    24    29    31   ar
    25    12    13   ar
    26    13    14    2
    27    13    15   ar
    28    15    16   ar
    29    15     2    1
    30    16     5   ar
    31    21    17    1
    32    16    10   ar
    33    25    19    1
    34    26    27    1
    35    26    28    1
@<TRIPOS>MOLECULE
*****
 31 35 0 0 0
SMALL
GASTEIGER

@<TRIPOS>ATOM
      1 C         143.7282  138.4342  166.2690 C.3     1  UNL1        0.0285
      2 C         142.9517  139.6080  165.7502 C.3     1  UNL1        0.1321
      3 C         143.0321  139.9781  164.2988 C.3     1  UNL1        0.2279
      4 O         142.2556  141.1520  163.7800 O.3     1  UNL1       -0.4707
      5 C         141.3987  141.9557  164.7125 C.ar    1  UNL1        0.1697
      6 C         140.6222  143.1295  164.1937 C.ar    1  UNL1        0.1116
      7 C         139.7652  143.9332  165.1262 C.ar    1  UNL1        0.1564
      8 F         138.9887  145.1070  164.6074 F       1  UNL1       -0.2028
      9 C         139.6848  143.5631  166.5777 C.ar    1  UNL1        0.0326
     10 C         140.4613  142.3893  167.0965 C.ar    1  UNL1        0.0214
     11 C         140.3809  142.0192  168.5479 C.ar    1  UNL1        0.0075
     12 C         141.1574  140.8454  169.0667 C.ar    1  UNL1        0.0702
     13 C         142.0144  140.0417  168.1342 C.ar    1  UNL1        0.2620
     14 O         142.7909  138.8678  168.6530 O.2     1  UNL1       -0.2669
     15 N         142.0948  140.4117  166.6827 N.ar    1  UNL1       -0.2909
     16 C         141.3183  141.5856  166.1639 C.ar    1  UNL1        0.0980
     17 N         140.7026  143.4996  162.7423 N.pl3   1  UNL1       -0.3009
     18 C         139.7235  143.1055  161.6763 C.3     1  UNL1        0.0948
     19 C         140.1919  143.6911  160.3773 C.3     1  UNL1        0.0629
     20 C         141.4606  144.4471  160.6403 C.3     1  UNL1        0.1377
     21 C         141.7762  144.3287  162.1020 C.3     1  UNL1        0.1206
     22 O         142.1645  145.1456  159.5148 O.3     1  UNL1       -0.3544
     23 C         141.5998  145.0881  158.1264 C.3     1  UNL1        0.1435
     24 C         140.3312  144.3322  157.8633 C.3     1  UNL1        0.0477
     25 C         139.6273  143.6337  158.9888 C.3     1  UNL1        0.0573
     26 N         138.3587  142.8777  158.7257 N.3     1  UNL1       -0.3220
     27 H         138.1227  142.9436  157.7356 H       1  UNL1        0.1188
     28 H         137.6032  143.2771  159.2827 H       1  UNL1        0.1188
     29 C         141.0770  140.4753  170.5181 C.2     1  UNL1        0.0775
     30 O         142.0613  141.0486  171.4940 O.co2   1  UNL1       -0.5444
     31 O         140.0122  139.5318  170.9937 O.co2   1  UNL1       -0.5444
@<TRIPOS>UNITY_ATOM_ATTR
30 1
charge -1
@<TRIPOS>BOND
     1     2     1    1
     2     2     3    1
     3     3     4    1
     4     4     5    1
     5     5     6   ar
     6     6    17    1
     7    17    18    1
     8    19    18    1
     9    19    20    1
    10    20    21    1
    11    20    22    1
    12    22    23    1
    13    23    24    1
    14    24    25    1
    15    25    26    1
    16     6     7   ar
    17     7     8    1
    18     7     9   ar
    19     9    10   ar
    20    10    11   ar
    21    11    12   ar
    22    12    29    1
    23    29    30   ar
    24    29    31   ar
    25    12    13   ar
    26    13    14    2
    27    13    15   ar
    28    15    16   ar
    29    15     2    1
    30    16     5   ar
    31    21    17    1
    32    16    10   ar
    33    25    19    1
    34    26    27    1
    35    26    28    1
@<TRIPOS>MOLECULE
*****
 31 35 0 0 0
SMALL
GASTEIGER

@<TRIPOS>ATOM
      1 C         138.3497  139.5184  166.8063 C.3     1  UNL1        0.0285
      2 C         139.3094  140.4282  166.0982 C.3     1  UNL1        0.1321
      3 C         139.0198  140.8801  164.6976 C.3     1  UNL1        0.2279
      4 O         139.9795  141.7898  163.9895 O.3     1  UNL1       -0.4707
      5 C         141.2287  142.2477  164.6821 C.ar    1  UNL1        0.1697
      6 C         142.1884  143.1575  163.9740 C.ar    1  UNL1        0.1116
      7 C         143.4376  143.6153  164.6666 C.ar    1  UNL1        0.1564
      8 F         144.3973  144.5251  163.9585 F       1  UNL1       -0.2028
      9 C         143.7272  143.1634  166.0673 C.ar    1  UNL1        0.0326
     10 C         142.7676  142.2537  166.7754 C.ar    1  UNL1        0.0214
     11 C         143.0571  141.8018  168.1761 C.ar    1  UNL1        0.0075
     12 C         142.0975  140.8920  168.8841 C.ar    1  UNL1        0.0702
     13 C         140.8482  140.4341  168.1916 C.ar    1  UNL1        0.2620
     14 O         139.8886  139.5244  168.8996 O.2     1  UNL1       -0.2669
     15 N         140.5586  140.8860  166.7908 N.ar    1  UNL1       -0.2909
     16 C         141.5183  141.7958  166.0827 C.ar    1  UNL1        0.0980
     17 N         141.8988  143.6094  162.5734 N.pl3   1  UNL1       -0.3009
     18 C         142.7392  143.3252  161.3637 C.3     1  UNL1        0.0948
     19 C         142.0778  143.9650  160.1791 C.3     1  UNL1        0.0629
     20 C         140.8287  144.6446  160.6565 C.3     1  UNL1        0.1377
     21 C         140.7181  144.4248  162.1363 C.3     1  UNL1        0.1206
     22 O         139.9534  145.3757  159.6822 O.3     1  UNL1       -0.3544
     23 C         140.3272  145.4273  158.2305 C.3     1  UNL1        0.1435
     24 C         141.5763  144.7477  157.7530 C.3     1  UNL1        0.0477
     25 C         142.4516  144.0165  158.7273 C.3     1  UNL1        0.0573
     26 N         143.7006  143.3369  158.2499 N.3     1  UNL1       -0.3220
     27 H         143.7981  143.4726  157.2436 H       1  UNL1        0.1188
     28 H         143.6444  142.3393  158.4545 H       1  UNL1        0.1188
     29 C         142.3871  140.4401  170.2849 C.2     1  UNL1        0.0775
     30 O         143.3802  139.3427  170.5287 O.co2   1  UNL1       -0.5444
     31 O         141.6836  141.0857  171.4418 O.co2   1  UNL1       -0.5444
@<TRIPOS>UNITY_ATOM_ATTR
30 1
charge -1
@<TRIPOS>BOND
     1     2     1    1
     2     2     3    1
     3     3     4    1
     4     4     5    1
     5     5     6   ar
     6     6    17    1
     7    17    18    1
     8    19    18    1
     9    19    20    1
    10    20    21    1
    11    20    22    1
    12    22    23    1
    13    23    24    1
    14    24    25    1
    15    25    26    1
    16     6     7   ar
    17     7     8    1
    18     7     9   ar
    19     9    10   ar
    20    10    11   ar
    21    11    12   ar
    22    12    29    1
    23    29    30   ar
    24    29    31   ar
    25    12    13   ar
    26    13    14    2
    27    13    15   ar
    28    15    16   ar
    29    15     2    1
    30    16     5   ar
    31    21    17    1
    32    16    10   ar
    33    25    19    1
    34    26    27    1
    35    26    28    1
@<TRIPOS>MOLECULE
*****
 31 35 0 0 0
SMALL
GASTEIGER

@<TRIPOS>ATOM
      1 C         137.5321  138.3720  167.3866 C.3     1  UNL1        0.0285
      2 C         138.4624  139.1644  166.5166 C.3     1  UNL1        0.1321
      3 C         138.4994  138.9170  165.0377 C.3     1  UNL1        0.2279
      4 O         139.4296  139.7093  164.1677 O.3     1  UNL1       -0.4707
      5 C         140.3229  140.7491  164.7768 C.ar    1  UNL1        0.1697
      6 C         141.2531  141.5415  163.9069 C.ar    1  UNL1        0.1116
      7 C         142.1463  142.5813  164.5159 C.ar    1  UNL1        0.1564
      8 F         143.0766  143.3737  163.6460 F       1  UNL1       -0.2028
      9 C         142.1093  142.8287  165.9949 C.ar    1  UNL1        0.0326
     10 C         141.1791  142.0364  166.8649 C.ar    1  UNL1        0.0214
     11 C         141.1420  142.2837  168.3438 C.ar    1  UNL1        0.0075
     12 C         140.2118  141.4914  169.2137 C.ar    1  UNL1        0.0702
     13 C         139.3186  140.4516  168.6047 C.ar    1  UNL1        0.2620
     14 O         138.3883  139.6592  169.4746 O.2     1  UNL1       -0.2669
     15 N         139.3556  140.2041  167.1257 N.ar    1  UNL1       -0.2909
     16 C         140.2858  140.9965  166.2557 C.ar    1  UNL1        0.0980
     17 N         141.2901  141.2941  162.4279 N.pl3   1  UNL1       -0.3009
     18 C         142.3552  140.5420  161.6861 C.3     1  UNL1        0.0948
     19 C         141.9920  140.5384  160.2308 C.3     1  UNL1        0.0629
     20 C         140.7024  141.2883  160.0730 C.3     1  UNL1        0.1377
     21 C         140.2687  141.7553  161.4309 C.3     1  UNL1        0.1206
     22 O         140.0897  141.4489  158.7133 O.3     1  UNL1       -0.3544
     23 C         140.7666  140.8597  157.5113 C.3     1  UNL1        0.1435
     24 C         142.0561  140.1099  157.6690 C.3     1  UNL1        0.0477
     25 C         142.6688  139.9492  159.0288 C.3     1  UNL1        0.0573
     26 N         143.9583  139.1994  159.1865 N.3     1  UNL1       -0.3220
     27 H         144.2743  138.8708  158.2741 H       1  UNL1        0.1188
     28 H         143.8138  138.4007  159.8042 H       1  UNL1        0.1188
     29 C         140.1748  141.7388  170.6928 C.2     1  UNL1        0.0775
     30 O         139.5794  143.0080  171.2262 O.co2   1  UNL1       -0.5444
     31 O         140.7332  140.7170  171.6383 O.co2   1  UNL1       -0.5444
@<TRIPOS>UNITY_ATOM_ATTR
30 1
charge -1
@<TRIPOS>BOND
     1     2     1    1
     2     2     3    1
     3     3     4    1
     4     4     5    1
     5     5     6   ar
     6     6    17    1
     7    17    18    1
     8    19    18    1
     9    19    20    1
    10    20    21    1
    11    20    22    1
    12    22    23    1
    13    23    24    1
    14    24    25    1
    15    25    26    1
    16     6     7   ar
    17     7     8    1
    18     7     9   ar
    19     9    10   ar
    20    10    11   ar
    21    11    12   ar
    22    12    29    1
    23    29    30   ar
    24    29    31   ar
    25    12    13   ar
    26    13    14    2
    27    13    15   ar
    28    15    16   ar
    29    15     2    1
    30    16     5   ar
    31    21    17    1
    32    16    10   ar
    33    25    19    1
    34    26    27    1
    35    26    28    1
@<TRIPOS>MOLECULE
*****
 31 35 0 0 0
SMALL
GASTEIGER

@<TRIPOS>ATOM
      1 C         139.9488  144.6060  160.9837 C.3     1  UNL1        0.0285
      2 C         139.9005  143.3862  161.8554 C.3     1  UNL1        0.1321
      3 C         140.4036  143.4528  163.2669 C.3     1  UNL1        0.2279
      4 O         140.3554  142.2330  164.1386 O.3     1  UNL1       -0.4707
      5 C         139.8040  140.9468  163.5988 C.ar    1  UNL1        0.1697
      6 C         139.7558  139.7270  164.4706 C.ar    1  UNL1        0.1116
      7 C         139.2044  138.4407  163.9308 C.ar    1  UNL1        0.1564
      8 F         139.1562  137.2210  164.8025 F       1  UNL1       -0.2028
      9 C         138.7012  138.3741  162.5192 C.ar    1  UNL1        0.0326
     10 C         138.7495  139.5939  161.6475 C.ar    1  UNL1        0.0214
     11 C         138.2463  139.5273  160.2360 C.ar    1  UNL1        0.0075
     12 C         138.2946  140.7471  159.3643 C.ar    1  UNL1        0.0702
     13 C         138.8460  142.0333  159.9040 C.ar    1  UNL1        0.2620
     14 O         138.8942  143.2531  159.0323 O.2     1  UNL1       -0.2669
     15 N         139.3491  142.0999  161.3156 N.ar    1  UNL1       -0.2909
     16 C         139.3009  140.8802  162.1874 C.ar    1  UNL1        0.0980
     17 N         140.2589  139.7936  165.8821 N.pl3   1  UNL1       -0.3009
     18 C         139.4154  139.9535  167.1122 C.3     1  UNL1        0.0948
     19 C         140.3291  139.9706  168.3017 C.3     1  UNL1        0.0629
     20 C         141.7372  139.8214  167.8069 C.3     1  UNL1        0.1377
     21 C         141.6939  139.7119  166.3114 C.3     1  UNL1        0.1206
     22 O         142.8770  139.8044  168.7819 O.3     1  UNL1       -0.3544
     23 C         142.6086  139.9366  170.2517 C.3     1  UNL1        0.1435
     24 C         141.2006  140.0859  170.7466 C.3     1  UNL1        0.0477
     25 C         140.0607  140.1029  169.7716 C.3     1  UNL1        0.0573
     26 N         138.6526  140.2522  170.2665 N.3     1  UNL1       -0.3220
     27 H         138.6560  140.3287  171.2836 H       1  UNL1        0.1188
     28 H         138.1064  139.4368  169.9887 H       1  UNL1        0.1188
     29 C         137.7914  140.6805  157.9527 C.2     1  UNL1        0.0775
     30 O         136.3547  140.3436  157.6837 O.co2   1  UNL1       -0.5444
     31 O         138.7250  140.9507  156.8102 O.co2   1  UNL1       -0.5444
@<TRIPOS>UNITY_ATOM_ATTR
30 1
charge -1
@<TRIPOS>BOND
     1     2     1    1
     2     2     3    1
     3     3     4    1
     4     4     5    1
     5     5     6   ar
     6     6    17    1
     7    17    18    1
     8    19    18    1
     9    19    20    1
    10    20    21    1
    11    20    22    1
    12    22    23    1
    13    23    24    1
    14    24    25    1
    15    25    26    1
    16     6     7   ar
    17     7     8    1
    18     7     9   ar
    19     9    10   ar
    20    10    11   ar
    21    11    12   ar
    22    12    29    1
    23    29    30   ar
    24    29    31   ar
    25    12    13   ar
    26    13    14    2
    27    13    15   ar
    28    15    16   ar
    29    15     2    1
    30    16     5   ar
    31    21    17    1
    32    16    10   ar
    33    25    19    1
    34    26    27    1
    35    26    28    1
@<TRIPOS>MOLECULE
*****
 31 35 0 0 0
SMALL
GASTEIGER

@<TRIPOS>ATOM
      1 C         143.3530  138.6795  166.6107 C.3     1  UNL1        0.0285
      2 C         142.5463  139.7877  166.0014 C.3     1  UNL1        0.1321
      3 C         142.4363  139.9028  164.5099 C.3     1  UNL1        0.2279
      4 O         141.6297  141.0110  163.9006 O.3     1  UNL1       -0.4707
      5 C         140.9330  142.0041  164.7829 C.ar    1  UNL1        0.1697
      6 C         140.1263  143.1123  164.1736 C.ar    1  UNL1        0.1116
      7 C         139.4297  144.1054  165.0558 C.ar    1  UNL1        0.1564
      8 F         138.6230  145.2136  164.4466 F       1  UNL1       -0.2028
      9 C         139.5397  143.9903  166.5474 C.ar    1  UNL1        0.0326
     10 C         140.3463  142.8821  167.1567 C.ar    1  UNL1        0.0214
     11 C         140.4563  142.7670  168.6482 C.ar    1  UNL1        0.0075
     12 C         141.2630  141.6588  169.2574 C.ar    1  UNL1        0.0702
     13 C         141.9596  140.6657  168.3752 C.ar    1  UNL1        0.2620
     14 O         142.7663  139.5575  168.9845 O.2     1  UNL1       -0.2669
     15 N         141.8497  140.7808  166.8836 N.ar    1  UNL1       -0.2909
     16 C         141.0430  141.8890  166.2744 C.ar    1  UNL1        0.0980
     17 N         140.0163  143.2274  162.6821 N.pl3   1  UNL1       -0.3009
     18 C         140.8007  144.1622  161.8097 C.3     1  UNL1        0.0948
     19 C         140.3718  143.9405  160.3895 C.3     1  UNL1        0.0629
     20 C         139.3224  142.8687  160.3841 C.3     1  UNL1        0.1377
     21 C         139.1027  142.4280  161.8011 C.3     1  UNL1        0.1206
     22 O         138.7025  142.4325  159.0898 O.3     1  UNL1       -0.3544
     23 C         139.1319  143.0681  157.8008 C.3     1  UNL1        0.1435
     24 C         140.1813  144.1399  157.8061 C.3     1  UNL1        0.0477
     25 C         140.8013  144.5761  159.1005 C.3     1  UNL1        0.0573
     26 N         141.8506  145.6479  159.1058 N.3     1  UNL1       -0.3220
     27 H         142.0180  145.9646  158.1508 H       1  UNL1        0.1188
     28 H         142.7157  145.2748  159.4968 H       1  UNL1        0.1188
     29 C         141.3729  141.5438  170.7490 C.2     1  UNL1        0.0775
     30 O         140.6218  140.4678  171.4757 O.co2   1  UNL1       -0.5444
     31 O         142.2341  142.5047  171.5139 O.co2   1  UNL1       -0.5444
@<TRIPOS>UNITY_ATOM_ATTR
30 1
charge -1
@<TRIPOS>BOND
     1     2     1    1
     2     2     3    1
     3     3     4    1
     4     4     5    1
     5     5     6   ar
     6     6    17    1
     7    17    18    1
     8    19    18    1
     9    19    20    1
    10    20    21    1
    11    20    22    1
    12    22    23    1
    13    23    24    1
    14    24    25    1
    15    25    26    1
    16     6     7   ar
    17     7     8    1
    18     7     9   ar
    19     9    10   ar
    20    10    11   ar
    21    11    12   ar
    22    12    29    1
    23    29    30   ar
    24    29    31   ar
    25    12    13   ar
    26    13    14    2
    27    13    15   ar
    28    15    16   ar
    29    15     2    1
    30    16     5   ar
    31    21    17    1
    32    16    10   ar
    33    25    19    1
    34    26    27    1
    35    26    28    1
@<TRIPOS>MOLECULE
*****
 31 35 0 0 0
SMALL
GASTEIGER

@<TRIPOS>ATOM
      1 C         144.4669  141.5127  160.2380 C.3     1  UNL1        0.0285
      2 C         143.6096  141.8930  161.4086 C.3     1  UNL1        0.1321
      3 C         143.7670  141.1775  162.7175 C.3     1  UNL1        0.2279
      4 O         142.9097  141.5578  163.8881 O.3     1  UNL1       -0.4707
      5 C         141.8949  142.6538  163.7498 C.ar    1  UNL1        0.1697
      6 C         141.0376  143.0342  164.9204 C.ar    1  UNL1        0.1116
      7 C         140.0228  144.1301  164.7822 C.ar    1  UNL1        0.1564
      8 F         139.1655  144.5105  165.9528 F       1  UNL1       -0.2028
      9 C         139.8654  144.8457  163.4733 C.ar    1  UNL1        0.0326
     10 C         140.7227  144.4654  162.3027 C.ar    1  UNL1        0.0214
     11 C         140.5653  145.1809  160.9938 C.ar    1  UNL1        0.0075
     12 C         141.4226  144.8006  159.8232 C.ar    1  UNL1        0.0702
     13 C         142.4374  143.7046  159.9615 C.ar    1  UNL1        0.2620
     14 O         143.2947  143.3242  158.7909 O.2     1  UNL1       -0.2669
     15 N         142.5948  142.9890  161.2704 N.ar    1  UNL1       -0.2909
     16 C         141.7375  143.3694  162.4410 C.ar    1  UNL1        0.0980
     17 N         141.1950  142.3186  166.2293 N.pl3   1  UNL1       -0.3009
     18 C         140.1251  141.5528  166.9498 C.3     1  UNL1        0.0948
     19 C         140.7188  141.0041  168.2133 C.3     1  UNL1        0.0629
     20 C         142.1556  141.4307  168.2737 C.3     1  UNL1        0.1377
     21 C         142.4499  142.2431  167.0475 C.3     1  UNL1        0.1206
     22 O         143.0103  141.0243  169.4375 O.3     1  UNL1       -0.3544
     23 C         142.4282  140.1912  170.5408 C.3     1  UNL1        0.1435
     24 C         140.9914  139.7646  170.4803 C.3     1  UNL1        0.0477
     25 C         140.1367  140.1710  169.3165 C.3     1  UNL1        0.0573
     26 N         138.6999  139.7444  169.2561 N.3     1  UNL1       -0.3220
     27 H         138.4752  139.1890  170.0815 H       1  UNL1        0.1188
     28 H         138.5465  139.1845  168.4174 H       1  UNL1        0.1188
     29 C         141.2652  145.5162  158.5143 C.2     1  UNL1        0.0775
     30 O         139.9486  145.4852  157.7963 O.co2   1  UNL1       -0.5444
     31 O         142.4243  146.2628  157.9236 O.co2   1  UNL1       -0.5444
@<TRIPOS>UNITY_ATOM_ATTR
30 1
charge -1
@<TRIPOS>BOND
     1     2     1    1
     2     2     3    1
     3     3     4    1
     4     4     5    1
     5     5     6   ar
     6     6    17    1
     7    17    18    1
     8    19    18    1
     9    19    20    1
    10    20    21    1
    11    20    22    1
    12    22    23    1
    13    23    24    1
    14    24    25    1
    15    25    26    1
    16     6     7   ar
    17     7     8    1
    18     7     9   ar
    19     9    10   ar
    20    10    11   ar
    21    11    12   ar
    22    12    29    1
    23    29    30   ar
    24    29    31   ar
    25    12    13   ar
    26    13    14    2
    27    13    15   ar
    28    15    16   ar
    29    15     2    1
    30    16     5   ar
    31    21    17    1
    32    16    10   ar
    33    25    19    1
    34    26    27    1
    35    26    28    1
