@<TRIPOS>MOLECULE
*****
 29 32 0 0 0
SMALL
GASTEIGER

@<TRIPOS>ATOM
      1 C         143.3443  138.5660  165.5733 C.ar    1  UNL1        0.1345
      2 C         142.1224  137.9912  164.9201 C.ar    1  UNL1        0.0484
      3 C         141.9973  137.9983  163.4254 C.ar    1  UNL1        0.0449
      4 C         143.0941  138.5803  162.5837 C.ar    1  UNL1        0.0098
      5 C         144.3160  139.1551  163.2368 C.ar    1  UNL1        0.0972
      6 N         144.4411  139.1479  164.7316 N.ar    1  UNL1       -0.2293
      7 C         142.9689  138.5874  161.0889 C.3     1  UNL1        0.0251
      8 C         142.9092  139.3420  159.7940 C.3     1  UNL1        0.0048
      9 C         142.8119  137.8452  159.7949 C.3     1  UNL1        0.0048
     10 N         143.4694  138.5589  167.0680 N.pl3   1  UNL1       -0.2821
     11 H         144.0989  137.9417  167.5063 H       1  UNL1        0.1551
     12 C         140.9675  141.3582  169.5487 C.ar    1  UNL1        0.1683
     13 C         141.7079  140.2316  170.2063 C.ar    1  UNL1        0.1299
     14 N         142.5419  139.2985  169.3794 N.ar    1  UNL1       -0.2251
     15 C         142.6354  139.4920  167.8949 C.ar    1  UNL1        0.1527
     16 C         141.8950  140.6186  167.2373 C.ar    1  UNL1        0.1340
     17 N         141.0610  141.5517  168.0642 N.ar    1  UNL1       -0.2290
     18 N         139.2995  143.2245  171.2025 N.1     1  UNL1       -0.1892
     19 C         140.1335  142.2913  170.3756 C.1     1  UNL1        0.1214
     20 N         140.7753  137.4235  162.7722 N.pl3   1  UNL1       -0.3308
     21 H         140.8584  136.9166  161.9324 H       1  UNL1        0.1469
     22 C         139.4268  137.6211  163.3987 C.3     1  UNL1        0.1184
     23 C         138.7429  138.9526  163.3024 C.3     1  UNL1        0.1503
     24 C         137.8775  139.2673  162.1183 C.3     1  UNL1        0.1003
     25 N         137.1936  140.5987  162.0219 N.3     1  UNL1       -0.2933
     26 C         137.3749  141.6156  163.1097 C.3     1  UNL1        0.1011
     27 C         138.2403  141.3009  164.2938 C.3     1  UNL1        0.1592
     28 O         138.9243  139.9693  164.3901 O.3     1  UNL1       -0.3516
     29 H         136.1929  140.4117  161.9575 H       1  UNL1        0.1234
@<TRIPOS>BOND
     1    18    19    3
     2    19    12    1
     3    12    13   ar
     4    13    14   ar
     5    14    15   ar
     6    15    10    1
     7    10     1    1
     8     1     2   ar
     9     2     3   ar
    10     3    20    1
    11    20    22    1
    12    23    22    1
    13    23    24    1
    14    24    25    1
    15    25    26    1
    16    26    27    1
    17    27    28    1
    18     3     4   ar
    19     4     7    1
    20     7     8    1
    21     8     9    1
    22     4     5   ar
    23     5     6   ar
    24    15    16   ar
    25    16    17   ar
    26    17    12   ar
    27     6     1   ar
    28    28    23    1
    29     9     7    1
    30    10    11    1
    31    20    21    1
    32    25    29    1
@<TRIPOS>MOLECULE
*****
 29 32 0 0 0
SMALL
GASTEIGER

@<TRIPOS>ATOM
      1 C         139.2851  139.3210  166.4548 C.ar    1  UNL1        0.1345
      2 C         140.1386  140.4256  165.9058 C.ar    1  UNL1        0.0484
      3 C         140.6203  141.5212  166.8100 C.ar    1  UNL1        0.0449
      4 C         140.2486  141.5122  168.2632 C.ar    1  UNL1        0.0098
      5 C         139.3951  140.4077  168.8122 C.ar    1  UNL1        0.0972
      6 N         138.9133  139.3120  167.9080 N.ar    1  UNL1       -0.2293
      7 C         140.7304  142.6079  169.1673 C.3     1  UNL1        0.0251
      8 C         140.4777  143.8905  169.9029 C.3     1  UNL1        0.0048
      9 C         141.8176  143.2230  169.9978 C.3     1  UNL1        0.0048
     10 N         138.8033  138.2254  165.5507 N.pl3   1  UNL1       -0.2821
     11 H         138.4314  137.3985  165.9342 H       1  UNL1        0.1551
     12 C         139.0581  138.7182  161.0850 C.ar    1  UNL1        0.1683
     13 C         138.0812  139.5373  161.8754 C.ar    1  UNL1        0.1299
     14 N         137.9963  139.3730  163.3640 N.ar    1  UNL1       -0.2251
     15 C         138.8882  138.3896  164.0621 C.ar    1  UNL1        0.1527
     16 C         139.8651  137.5706  163.2717 C.ar    1  UNL1        0.1340
     17 N         139.9500  137.7349  161.7832 N.ar    1  UNL1       -0.2290
     18 N         139.2279  139.0467  158.1079 N.1     1  UNL1       -0.1892
     19 C         139.1430  138.8825  159.5965 C.1     1  UNL1        0.1214
     20 N         141.4739  142.6258  166.2610 N.pl3   1  UNL1       -0.3308
     21 H         141.8647  143.2944  166.8688 H       1  UNL1        0.1469
     22 C         141.7320  142.7117  164.7858 C.3     1  UNL1        0.1184
     23 C         141.0017  143.7242  163.9544 C.3     1  UNL1        0.1503
     24 C         141.6743  145.0109  163.5774 C.3     1  UNL1        0.1003
     25 N         140.9440  146.0234  162.7459 N.3     1  UNL1       -0.2933
     26 C         139.5410  145.7493  162.2914 C.3     1  UNL1        0.1011
     27 C         138.8684  144.4627  162.6684 C.3     1  UNL1        0.1592
     28 O         139.5987  143.4501  163.4999 O.3     1  UNL1       -0.3516
     29 H         141.5022  146.1718  161.9052 H       1  UNL1        0.1234
@<TRIPOS>BOND
     1    18    19    3
     2    19    12    1
     3    12    13   ar
     4    13    14   ar
     5    14    15   ar
     6    15    10    1
     7    10     1    1
     8     1     2   ar
     9     2     3   ar
    10     3    20    1
    11    20    22    1
    12    23    22    1
    13    23    24    1
    14    24    25    1
    15    25    26    1
    16    26    27    1
    17    27    28    1
    18     3     4   ar
    19     4     7    1
    20     7     8    1
    21     8     9    1
    22     4     5   ar
    23     5     6   ar
    24    15    16   ar
    25    16    17   ar
    26    17    12   ar
    27     6     1   ar
    28    28    23    1
    29     9     7    1
    30    10    11    1
    31    20    21    1
    32    25    29    1
@<TRIPOS>MOLECULE
*****
 29 32 0 0 0
SMALL
GASTEIGER

@<TRIPOS>ATOM
      1 C         138.9572  139.5321  166.3059 C.ar    1  UNL1        0.1345
      2 C         139.4845  140.8241  165.7557 C.ar    1  UNL1        0.0484
      3 C         140.0453  141.8610  166.6832 C.ar    1  UNL1        0.0449
      4 C         140.0787  141.6059  168.1610 C.ar    1  UNL1        0.0098
      5 C         139.5513  140.3140  168.7112 C.ar    1  UNL1        0.0972
      6 N         138.9906  139.2770  167.7836 N.ar    1  UNL1       -0.2293
      7 C         140.6394  142.6429  169.0886 C.3     1  UNL1        0.0251
      8 C         140.4834  143.9268  169.8483 C.3     1  UNL1        0.0048
      9 C         141.7667  143.1550  169.9354 C.3     1  UNL1        0.0048
     10 N         138.3964  138.4952  165.3783 N.pl3   1  UNL1       -0.2821
     11 H         137.7758  137.8121  165.7211 H       1  UNL1        0.1551
     12 C         139.5508  138.5069  161.0289 C.ar    1  UNL1        0.1683
     13 C         138.4040  139.3496  161.5028 C.ar    1  UNL1        0.1299
     14 N         138.0192  139.3457  162.9526 N.ar    1  UNL1       -0.2251
     15 C         138.7812  138.4991  163.9285 C.ar    1  UNL1        0.1527
     16 C         139.9280  137.6564  163.4546 C.ar    1  UNL1        0.1340
     17 N         140.3128  137.6602  162.0048 N.ar    1  UNL1       -0.2290
     18 N         140.3203  138.5146  158.1293 N.1     1  UNL1       -0.1892
     19 C         139.9356  138.5107  159.5791 C.1     1  UNL1        0.1214
     20 N         140.5726  143.1530  166.1330 N.pl3   1  UNL1       -0.3308
     21 H         140.9345  143.8363  166.7424 H       1  UNL1        0.1469
     22 C         140.5486  143.4038  164.6544 C.3     1  UNL1        0.1184
     23 C         141.8344  143.5840  163.9032 C.3     1  UNL1        0.1503
     24 C         142.2662  144.9546  163.4733 C.3     1  UNL1        0.1003
     25 N         143.5520  145.1348  162.7222 N.3     1  UNL1       -0.2933
     26 C         144.4061  143.9442  162.4009 C.3     1  UNL1        0.1011
     27 C         143.9743  142.5735  162.8308 C.3     1  UNL1        0.1592
     28 O         142.6884  142.3934  163.5820 O.3     1  UNL1       -0.3516
     29 H         144.1285  145.7705  163.2734 H       1  UNL1        0.1234
@<TRIPOS>BOND
     1    18    19    3
     2    19    12    1
     3    12    13   ar
     4    13    14   ar
     5    14    15   ar
     6    15    10    1
     7    10     1    1
     8     1     2   ar
     9     2     3   ar
    10     3    20    1
    11    20    22    1
    12    23    22    1
    13    23    24    1
    14    24    25    1
    15    25    26    1
    16    26    27    1
    17    27    28    1
    18     3     4   ar
    19     4     7    1
    20     7     8    1
    21     8     9    1
    22     4     5   ar
    23     5     6   ar
    24    15    16   ar
    25    16    17   ar
    26    17    12   ar
    27     6     1   ar
    28    28    23    1
    29     9     7    1
    30    10    11    1
    31    20    21    1
    32    25    29    1
@<TRIPOS>MOLECULE
*****
 29 32 0 0 0
SMALL
GASTEIGER

@<TRIPOS>ATOM
      1 C         138.6207  139.2211  166.0060 C.ar    1  UNL1        0.1345
      2 C         138.1862  140.4955  165.3447 C.ar    1  UNL1        0.0484
      3 C         138.0512  140.5577  163.8521 C.ar    1  UNL1        0.0449
      4 C         138.3507  139.3457  163.0208 C.ar    1  UNL1        0.0098
      5 C         138.7852  138.0713  163.6820 C.ar    1  UNL1        0.0972
      6 N         138.9202  138.0090  165.1746 N.ar    1  UNL1       -0.2293
      7 C         138.2156  139.4080  161.5281 C.3     1  UNL1        0.0251
      8 C         137.3992  139.7222  160.3096 C.3     1  UNL1        0.0048
      9 C         138.7981  139.2017  160.1613 C.3     1  UNL1        0.0048
     10 N         138.7557  139.1588  167.4986 N.pl3   1  UNL1       -0.2821
     11 H         138.2352  138.5002  168.0129 H       1  UNL1        0.1551
     12 C         141.5397  141.9827  169.6257 C.ar    1  UNL1        0.1683
     13 C         141.9094  141.4385  168.2777 C.ar    1  UNL1        0.1299
     14 N         140.9814  140.4972  167.5687 N.ar    1  UNL1       -0.2251
     15 C         139.6837  140.1001  168.2076 C.ar    1  UNL1        0.1527
     16 C         139.3141  140.6443  169.5556 C.ar    1  UNL1        0.1340
     17 N         140.2421  141.5856  170.2647 N.ar    1  UNL1       -0.2290
     18 N         143.3958  143.8653  171.0438 N.1     1  UNL1       -0.1892
     19 C         142.4678  142.9240  170.3348 C.1     1  UNL1        0.1214
     20 N         137.6166  141.8321  163.1908 N.pl3   1  UNL1       -0.3308
     21 H         137.1939  141.8062  162.3021 H       1  UNL1        0.1469
     22 C         137.8262  143.1459  163.8837 C.3     1  UNL1        0.1184
     23 C         139.1556  143.8351  163.7985 C.3     1  UNL1        0.1503
     24 C         139.2820  145.1316  163.0547 C.3     1  UNL1        0.1003
     25 N         140.6115  145.8208  162.9694 N.3     1  UNL1       -0.2933
     26 C         141.8147  145.2137  163.6280 C.3     1  UNL1        0.1011
     27 C         141.6884  143.9172  164.3718 C.3     1  UNL1        0.1592
     28 O         140.3588  143.2280  164.4570 O.3     1  UNL1       -0.3516
     29 H         140.4892  146.7479  163.3768 H       1  UNL1        0.1234
@<TRIPOS>BOND
     1    18    19    3
     2    19    12    1
     3    12    13   ar
     4    13    14   ar
     5    14    15   ar
     6    15    10    1
     7    10     1    1
     8     1     2   ar
     9     2     3   ar
    10     3    20    1
    11    20    22    1
    12    23    22    1
    13    23    24    1
    14    24    25    1
    15    25    26    1
    16    26    27    1
    17    27    28    1
    18     3     4   ar
    19     4     7    1
    20     7     8    1
    21     8     9    1
    22     4     5   ar
    23     5     6   ar
    24    15    16   ar
    25    16    17   ar
    26    17    12   ar
    27     6     1   ar
    28    28    23    1
    29     9     7    1
    30    10    11    1
    31    20    21    1
    32    25    29    1
@<TRIPOS>MOLECULE
*****
 29 32 0 0 0
SMALL
GASTEIGER

@<TRIPOS>ATOM
      1 C         140.3068  143.0715  164.5320 C.ar    1  UNL1        0.1345
      2 C         141.1566  142.0755  165.2642 C.ar    1  UNL1        0.0484
      3 C         140.5484  140.8037  165.7765 C.ar    1  UNL1        0.0449
      4 C         139.0904  140.5279  165.5568 C.ar    1  UNL1        0.0098
      5 C         138.2407  141.5238  164.8247 C.ar    1  UNL1        0.0972
      6 N         138.8489  142.7957  164.3123 N.ar    1  UNL1       -0.2293
      7 C         138.4822  139.2560  166.0692 C.3     1  UNL1        0.0251
      8 C         137.6540  138.5303  167.0877 C.3     1  UNL1        0.0048
      9 C         138.2571  137.7788  165.9382 C.3     1  UNL1        0.0048
     10 N         140.9150  144.3433  164.0196 N.pl3   1  UNL1       -0.2821
     11 H         141.4068  144.9359  164.6331 H       1  UNL1        0.1551
     12 C         140.4919  145.4505  159.6785 C.ar    1  UNL1        0.1683
     13 C         141.5527  144.4794  160.1049 C.ar    1  UNL1        0.1299
     14 N         141.6937  144.1104  161.5520 N.ar    1  UNL1       -0.2251
     15 C         140.7740  144.7124  162.5726 C.ar    1  UNL1        0.1527
     16 C         139.7132  145.6834  162.1462 C.ar    1  UNL1        0.1340
     17 N         139.5722  146.0524  160.6991 N.ar    1  UNL1       -0.2290
     18 N         140.2099  146.1885  156.7844 N.1     1  UNL1       -0.1892
     19 C         140.3509  145.8195  158.2315 C.1     1  UNL1        0.1214
     20 N         141.3981  139.8077  166.5087 N.pl3   1  UNL1       -0.3308
     21 H         141.5829  138.9283  166.1065 H       1  UNL1        0.1469
     22 C         141.9663  140.1517  167.8536 C.3     1  UNL1        0.1184
     23 C         141.2178  141.0728  168.7708 C.3     1  UNL1        0.1503
     24 C         140.0182  140.5733  169.5201 C.3     1  UNL1        0.1003
     25 N         139.2697  141.4944  170.4372 N.3     1  UNL1       -0.2933
     26 C         139.7208  142.9151  170.6051 C.3     1  UNL1        0.1011
     27 C         140.9204  143.4146  169.8559 C.3     1  UNL1        0.1592
     28 O         141.6689  142.4934  168.9387 O.3     1  UNL1       -0.3516
     29 H         139.2895  141.0677  171.3635 H       1  UNL1        0.1234
@<TRIPOS>BOND
     1    18    19    3
     2    19    12    1
     3    12    13   ar
     4    13    14   ar
     5    14    15   ar
     6    15    10    1
     7    10     1    1
     8     1     2   ar
     9     2     3   ar
    10     3    20    1
    11    20    22    1
    12    23    22    1
    13    23    24    1
    14    24    25    1
    15    25    26    1
    16    26    27    1
    17    27    28    1
    18     3     4   ar
    19     4     7    1
    20     7     8    1
    21     8     9    1
    22     4     5   ar
    23     5     6   ar
    24    15    16   ar
    25    16    17   ar
    26    17    12   ar
    27     6     1   ar
    28    28    23    1
    29     9     7    1
    30    10    11    1
    31    20    21    1
    32    25    29    1
@<TRIPOS>MOLECULE
*****
 29 32 0 0 0
SMALL
GASTEIGER

@<TRIPOS>ATOM
      1 C         142.6535  139.5220  166.7623 C.ar    1  UNL1        0.1345
      2 C         141.8284  140.6259  166.1698 C.ar    1  UNL1        0.0484
      3 C         141.1716  141.6345  167.0649 C.ar    1  UNL1        0.0449
      4 C         141.3399  141.5395  168.5524 C.ar    1  UNL1        0.0098
      5 C         142.1649  140.4357  169.1448 C.ar    1  UNL1        0.0972
      6 N         142.8217  139.4269  168.2498 N.ar    1  UNL1       -0.2293
      7 C         140.6830  142.5482  169.4474 C.3     1  UNL1        0.0251
      8 C         139.7556  142.8696  170.5817 C.3     1  UNL1        0.0048
      9 C         140.4728  143.9740  169.8634 C.3     1  UNL1        0.0048
     10 N         143.3102  138.5133  165.8672 N.pl3   1  UNL1       -0.2821
     11 H         143.6565  137.6724  166.2441 H       1  UNL1        0.1551
     12 C         143.6977  139.3312  161.4591 C.ar    1  UNL1        0.1683
     13 C         142.6224  138.4131  161.9599 C.ar    1  UNL1        0.1299
     14 N         142.4933  138.1405  163.4293 N.ar    1  UNL1       -0.2251
     15 C         143.4394  138.7859  164.3979 C.ar    1  UNL1        0.1527
     16 C         144.5147  139.7040  163.8971 C.ar    1  UNL1        0.1340
     17 N         144.6438  139.9766  162.4277 N.ar    1  UNL1       -0.2290
     18 N         143.9560  139.8764  158.5204 N.1     1  UNL1       -0.1892
     19 C         143.8269  139.6038  159.9898 C.1     1  UNL1        0.1214
     20 N         140.3466  142.7384  166.4724 N.pl3   1  UNL1       -0.3308
     21 H         140.2746  143.6031  166.9375 H       1  UNL1        0.1469
     22 C         139.6312  142.5246  165.1715 C.3     1  UNL1        0.1184
     23 C         139.6337  143.6023  164.1283 C.3     1  UNL1        0.1503
     24 C         138.3632  143.9586  163.4149 C.3     1  UNL1        0.1003
     25 N         138.3656  145.0364  162.3717 N.3     1  UNL1       -0.2933
     26 C         139.6387  145.7579  162.0418 C.3     1  UNL1        0.1011
     27 C         140.9092  145.4017  162.7551 C.3     1  UNL1        0.1592
     28 O         140.9066  144.3239  163.7984 O.3     1  UNL1       -0.3516
     29 H         137.6971  145.7435  162.6772 H       1  UNL1        0.1234
@<TRIPOS>BOND
     1    18    19    3
     2    19    12    1
     3    12    13   ar
     4    13    14   ar
     5    14    15   ar
     6    15    10    1
     7    10     1    1
     8     1     2   ar
     9     2     3   ar
    10     3    20    1
    11    20    22    1
    12    23    22    1
    13    23    24    1
    14    24    25    1
    15    25    26    1
    16    26    27    1
    17    27    28    1
    18     3     4   ar
    19     4     7    1
    20     7     8    1
    21     8     9    1
    22     4     5   ar
    23     5     6   ar
    24    15    16   ar
    25    16    17   ar
    26    17    12   ar
    27     6     1   ar
    28    28    23    1
    29     9     7    1
    30    10    11    1
    31    20    21    1
    32    25    29    1
@<TRIPOS>MOLECULE
*****
 29 32 0 0 0
SMALL
GASTEIGER

@<TRIPOS>ATOM
      1 C         138.6200  142.5469  164.4775 C.ar    1  UNL1        0.1345
      2 C         138.2471  141.1327  164.8107 C.ar    1  UNL1        0.0484
      3 C         138.8867  140.4439  165.9796 C.ar    1  UNL1        0.0449
      4 C         139.8992  141.1693  166.8155 C.ar    1  UNL1        0.0098
      5 C         140.2720  142.5835  166.4824 C.ar    1  UNL1        0.0972
      6 N         139.6324  143.2724  165.3134 N.ar    1  UNL1       -0.2293
      7 C         140.5388  140.4805  167.9845 C.3     1  UNL1        0.0251
      8 C         141.7147  139.7750  168.5922 C.3     1  UNL1        0.0048
      9 C         140.4706  139.9929  169.4014 C.3     1  UNL1        0.0048
     10 N         137.9804  143.2357  163.3086 N.pl3   1  UNL1       -0.2821
     11 H         137.0006  143.3201  163.2628 H       1  UNL1        0.1551
     12 C         140.5400  144.9164  160.0111 C.ar    1  UNL1        0.1683
     13 C         139.9523  145.8310  161.0445 C.ar    1  UNL1        0.1299
     14 N         139.0990  145.2708  162.1437 N.ar    1  UNL1       -0.2251
     15 C         138.8336  143.7959  162.2094 C.ar    1  UNL1        0.1527
     16 C         139.4214  142.8813  161.1760 C.ar    1  UNL1        0.1340
     17 N         140.2746  143.4416  160.0769 N.ar    1  UNL1       -0.2290
     18 N         142.2465  146.0368  157.8128 N.1     1  UNL1       -0.1892
     19 C         141.3933  145.4766  158.9119 C.1     1  UNL1        0.1214
     20 N         138.5139  139.0296  166.3127 N.pl3   1  UNL1       -0.3308
     21 H         138.1261  138.8169  167.1923 H       1  UNL1        0.1469
     22 C         138.7318  137.9395  165.3057 C.3     1  UNL1        0.1184
     23 C         139.9604  137.9480  164.4453 C.3     1  UNL1        0.1503
     24 C         139.8662  137.5600  162.9994 C.3     1  UNL1        0.1003
     25 N         141.0949  137.5684  162.1390 N.3     1  UNL1       -0.2933
     26 C         142.4178  137.9650  162.7245 C.3     1  UNL1        0.1011
     27 C         142.5120  138.3530  164.1704 C.3     1  UNL1        0.1592
     28 O         141.2833  138.3445  165.0308 O.3     1  UNL1       -0.3516
     29 H         140.9099  138.2100  161.3679 H       1  UNL1        0.1234
@<TRIPOS>BOND
     1    18    19    3
     2    19    12    1
     3    12    13   ar
     4    13    14   ar
     5    14    15   ar
     6    15    10    1
     7    10     1    1
     8     1     2   ar
     9     2     3   ar
    10     3    20    1
    11    20    22    1
    12    23    22    1
    13    23    24    1
    14    24    25    1
    15    25    26    1
    16    26    27    1
    17    27    28    1
    18     3     4   ar
    19     4     7    1
    20     7     8    1
    21     8     9    1
    22     4     5   ar
    23     5     6   ar
    24    15    16   ar
    25    16    17   ar
    26    17    12   ar
    27     6     1   ar
    28    28    23    1
    29     9     7    1
    30    10    11    1
    31    20    21    1
    32    25    29    1
@<TRIPOS>MOLECULE
*****
 29 32 0 0 0
SMALL
GASTEIGER

@<TRIPOS>ATOM
      1 C         139.1414  138.7704  160.9774 C.ar    1  UNL1        0.1345
      2 C         138.2929  139.8463  161.5879 C.ar    1  UNL1        0.0484
      3 C         138.0816  139.8829  163.0725 C.ar    1  UNL1        0.0449
      4 C         138.7189  138.8438  163.9466 C.ar    1  UNL1        0.0098
      5 C         139.5673  137.7680  163.3362 C.ar    1  UNL1        0.0972
      6 N         139.7786  137.7313  161.8515 N.ar    1  UNL1       -0.2293
      7 C         138.5076  138.8805  165.4313 C.3     1  UNL1        0.0251
      8 C         138.8626  139.4309  166.7807 C.3     1  UNL1        0.0048
      9 C         137.7866  138.3936  166.6532 C.3     1  UNL1        0.0048
     10 N         139.3526  138.7338  159.4928 N.pl3   1  UNL1       -0.2821
     11 H         139.7127  137.9226  159.0667 H       1  UNL1        0.1551
     12 C         138.3407  142.3317  156.9866 C.ar    1  UNL1        0.1683
     13 C         137.3134  141.2623  157.2129 C.ar    1  UNL1        0.1299
     14 N         137.6508  140.0630  158.0483 N.ar    1  UNL1       -0.2251
     15 C         139.0153  139.9331  158.6574 C.ar    1  UNL1        0.1527
     16 C         140.0425  141.0024  158.4311 C.ar    1  UNL1        0.1340
     17 N         139.7052  142.2017  157.5957 N.ar    1  UNL1       -0.2290
     18 N         137.6660  144.7302  155.3158 N.1     1  UNL1       -0.1892
     19 C         138.0033  143.5309  156.1512 C.1     1  UNL1        0.1214
     20 N         137.2331  140.9588  163.6830 N.pl3   1  UNL1       -0.3308
     21 H         136.2518  140.9036  163.6258 H       1  UNL1        0.1469
     22 C         137.8797  142.1186  164.3806 C.3     1  UNL1        0.1184
     23 C         138.6156  143.1563  163.5860 C.3     1  UNL1        0.1503
     24 C         137.8634  144.2899  162.9541 C.3     1  UNL1        0.1003
     25 N         138.5992  145.3276  162.1594 N.3     1  UNL1       -0.2933
     26 C         140.0873  145.2319  161.9966 C.3     1  UNL1        0.1011
     27 C         140.8395  144.0983  162.6284 C.3     1  UNL1        0.1592
     28 O         140.1036  143.0605  163.4231 O.3     1  UNL1       -0.3516
     29 H         138.4087  146.2269  162.6015 H       1  UNL1        0.1234
@<TRIPOS>BOND
     1    18    19    3
     2    19    12    1
     3    12    13   ar
     4    13    14   ar
     5    14    15   ar
     6    15    10    1
     7    10     1    1
     8     1     2   ar
     9     2     3   ar
    10     3    20    1
    11    20    22    1
    12    23    22    1
    13    23    24    1
    14    24    25    1
    15    25    26    1
    16    26    27    1
    17    27    28    1
    18     3     4   ar
    19     4     7    1
    20     7     8    1
    21     8     9    1
    22     4     5   ar
    23     5     6   ar
    24    15    16   ar
    25    16    17   ar
    26    17    12   ar
    27     6     1   ar
    28    28    23    1
    29     9     7    1
    30    10    11    1
    31    20    21    1
    32    25    29    1
@<TRIPOS>MOLECULE
*****
 29 32 0 0 0
SMALL
GASTEIGER

@<TRIPOS>ATOM
      1 C         139.3569  138.4953  161.1312 C.ar    1  UNL1        0.1345
      2 C         138.4520  139.5782  161.6396 C.ar    1  UNL1        0.0484
      3 C         138.1784  139.6984  163.1095 C.ar    1  UNL1        0.0449
      4 C         138.8097  138.7357  164.0711 C.ar    1  UNL1        0.0098
      5 C         139.7147  137.6528  163.5627 C.ar    1  UNL1        0.0972
      6 N         139.9883  137.5326  162.0927 N.ar    1  UNL1       -0.2293
      7 C         138.5361  138.8559  165.5411 C.3     1  UNL1        0.0251
      8 C         138.8557  139.4587  166.8768 C.3     1  UNL1        0.0048
      9 C         137.7426  138.4612  166.7513 C.3     1  UNL1        0.0048
     10 N         139.6305  138.3752  159.6613 N.pl3   1  UNL1       -0.2821
     11 H         138.9951  137.8984  159.0797 H       1  UNL1        0.1551
     12 C         143.3555  140.1936  157.9099 C.ar    1  UNL1        0.1683
     13 C         142.0297  140.8681  157.7172 C.ar    1  UNL1        0.1299
     14 N         140.7880  140.2619  158.3011 N.ar    1  UNL1       -0.2251
     15 C         140.8722  138.9813  159.0775 C.ar    1  UNL1        0.1527
     16 C         142.1980  138.3069  159.2701 C.ar    1  UNL1        0.1340
     17 N         143.4397  138.9130  158.6863 N.ar    1  UNL1       -0.2290
     18 N         145.8389  141.4060  156.7422 N.1     1  UNL1       -0.1892
     19 C         144.5972  140.7998  157.3261 C.1     1  UNL1        0.1214
     20 N         137.2734  140.7813  163.6180 N.pl3   1  UNL1       -0.3308
     21 H         136.2966  140.6767  163.5542 H       1  UNL1        0.1469
     22 C         137.8569  142.0234  164.2235 C.3     1  UNL1        0.1184
     23 C         138.5800  143.0117  163.3573 C.3     1  UNL1        0.1503
     24 C         137.9180  144.3039  162.9802 C.3     1  UNL1        0.1003
     25 N         138.6411  145.2922  162.1140 N.3     1  UNL1       -0.2933
     26 C         140.0263  144.9884  161.6249 C.3     1  UNL1        0.1011
     27 C         140.6882  143.6962  162.0020 C.3     1  UNL1        0.1592
     28 O         139.9650  142.7079  162.8682 O.3     1  UNL1       -0.3516
     29 H         138.7004  146.1611  162.6450 H       1  UNL1        0.1234
@<TRIPOS>BOND
     1    18    19    3
     2    19    12    1
     3    12    13   ar
     4    13    14   ar
     5    14    15   ar
     6    15    10    1
     7    10     1    1
     8     1     2   ar
     9     2     3   ar
    10     3    20    1
    11    20    22    1
    12    23    22    1
    13    23    24    1
    14    24    25    1
    15    25    26    1
    16    26    27    1
    17    27    28    1
    18     3     4   ar
    19     4     7    1
    20     7     8    1
    21     8     9    1
    22     4     5   ar
    23     5     6   ar
    24    15    16   ar
    25    16    17   ar
    26    17    12   ar
    27     6     1   ar
    28    28    23    1
    29     9     7    1
    30    10    11    1
    31    20    21    1
    32    25    29    1
