@<TRIPOS>MOLECULE
*****
 30 33 0 0 0
SMALL
GASTEIGER

@<TRIPOS>ATOM
      1 C         141.3194  141.7835  164.6844 C.2     1  UNL1        0.0784
      2 N         142.1660  142.2758  165.8206 N.2     1  UNL1       -0.2444
      3 C         142.3613  141.6627  167.1755 C.ar    1  UNL1        0.0954
      4 C         143.2957  142.4801  168.0174 C.ar    1  UNL1        0.0317
      5 C         143.6270  142.0405  169.4127 C.ar    1  UNL1        0.0593
      6 CL        144.5614  142.8579  170.2547 Cl      1  UNL1       -0.0822
      7 C         143.0240  140.7835  169.9662 C.ar    1  UNL1        0.0128
      8 C         142.0896  139.9661  169.1243 C.ar    1  UNL1        0.0170
      9 C         141.7583  140.4057  167.7290 C.ar    1  UNL1        0.0662
     10 N         140.8110  139.4514  167.0641 N.pl3   1  UNL1       -0.3113
     11 C         140.2327  139.5184  165.6817 C.ar    1  UNL1        0.0500
     12 C         139.3228  138.3570  165.4113 C.ar    1  UNL1        0.0178
     13 C         138.6392  138.2334  164.0819 C.ar    1  UNL1        0.0385
     14 C         138.8654  139.2712  163.0229 C.ar    1  UNL1        0.1469
     15 C         139.7754  140.4327  163.2932 C.ar    1  UNL1        0.0399
     16 C         140.4590  140.5563  164.6226 C.ar    1  UNL1        0.0337
     17 H         140.5319  138.6790  167.6069 H       1  UNL1        0.1523
     18 C         139.5945  145.9022  162.0272 C.3     1  UNL1        0.0222
     19 C         140.4728  144.6896  162.1177 C.3     1  UNL1        0.0796
     20 C         140.4569  143.8429  163.3558 C.2     1  UNL1       -0.0132
     21 C         141.3352  142.6302  163.4464 C.2     1  UNL1       -0.0061
     22 C         142.2293  142.2644  162.2989 C.3     1  UNL1        0.0449
     23 C         142.2452  143.1111  161.0608 C.3     1  UNL1        0.0771
     24 N         141.3669  144.3238  160.9703 N.3     1  UNL1       -0.2688
     25 C         141.3828  145.1705  159.7323 C.3     1  UNL1        0.0899
     26 O         138.1818  139.1476  161.6935 O.3     1  UNL1       -0.4045
     27 C         138.9853  138.8543  160.4613 C.3     1  UNL1        0.5753
     28 F         139.7888  138.5610  159.2290 F       1  UNL1       -0.1328
     29 F         139.6204  137.6851  161.1538 F       1  UNL1       -0.1328
     30 F         138.3501  140.0235  159.7688 F       1  UNL1       -0.1328
@<TRIPOS>BOND
     1    19    18    1
     2    19    20    1
     3    20    21    2
     4    21     1    1
     5     1     2    2
     6     2     3    1
     7     3     4   ar
     8     4     5   ar
     9     5     6    1
    10     5     7   ar
    11     7     8   ar
    12     8     9   ar
    13     9    10    1
    14    10    11    1
    15    11    12   ar
    16    12    13   ar
    17    13    14   ar
    18    14    26    1
    19    26    27    1
    20    27    28    1
    21    27    29    1
    22    27    30    1
    23    14    15   ar
    24    15    16   ar
    25    21    22    1
    26    22    23    1
    27    23    24    1
    28    24    25    1
    29    24    19    1
    30    16     1    1
    31     9     3   ar
    32    16    11   ar
    33    10    17    1
@<TRIPOS>MOLECULE
*****
 30 33 0 0 0
SMALL
GASTEIGER

@<TRIPOS>ATOM
      1 C         140.6888  142.1822  162.2283 C.2     1  UNL1        0.0784
      2 N         140.0514  142.3705  160.8836 N.2     1  UNL1       -0.2444
      3 C         140.3475  143.4122  159.8457 C.ar    1  UNL1        0.0954
      4 C         139.4769  143.2435  158.6359 C.ar    1  UNL1        0.0317
      5 C         139.6130  144.1856  157.4767 C.ar    1  UNL1        0.0593
      6 CL        138.7424  144.0169  156.2669 Cl      1  UNL1       -0.0822
      7 C         140.6198  145.2964  157.5272 C.ar    1  UNL1        0.0128
      8 C         141.4904  145.4651  158.7370 C.ar    1  UNL1        0.0170
      9 C         141.3543  144.5230  159.8962 C.ar    1  UNL1        0.0662
     10 N         142.3135  144.8664  160.9971 N.pl3   1  UNL1       -0.3113
     11 C         142.5030  144.1839  162.3193 C.ar    1  UNL1        0.0500
     12 C         143.5736  144.8501  163.1316 C.ar    1  UNL1        0.0178
     13 C         143.9213  144.3218  164.4917 C.ar    1  UNL1        0.0385
     14 C         143.1982  143.1273  165.0396 C.ar    1  UNL1        0.1469
     15 C         142.1275  142.4610  164.2274 C.ar    1  UNL1        0.0399
     16 C         141.7799  142.9893  162.8672 C.ar    1  UNL1        0.0337
     17 H         142.8958  145.6424  160.8297 H       1  UNL1        0.1523
     18 C         141.0702  137.2498  163.8173 C.3     1  UNL1        0.0222
     19 C         140.3568  138.5691  163.8361 C.3     1  UNL1        0.0796
     20 C         140.8795  139.7160  163.0228 C.2     1  UNL1       -0.0132
     21 C         140.1661  141.0354  163.0416 C.2     1  UNL1       -0.0061
     22 C         138.9300  141.2079  163.8736 C.3     1  UNL1        0.0449
     23 C         138.4072  140.0610  164.6869 C.3     1  UNL1        0.0771
     24 N         139.1207  138.7416  164.6681 N.3     1  UNL1       -0.2688
     25 C         138.5980  137.5948  165.4814 C.3     1  UNL1        0.0899
     26 O         143.5459  142.5990  166.3998 O.3     1  UNL1       -0.4045
     27 C         142.6889  141.5455  167.0368 C.3     1  UNL1        0.5753
     28 F         141.8319  140.4920  167.6738 F       1  UNL1       -0.1328
     29 F         143.4246  140.4850  166.2726 F       1  UNL1       -0.1328
     30 F         141.9532  142.6061  167.8010 F       1  UNL1       -0.1328
@<TRIPOS>BOND
     1    19    18    1
     2    19    20    1
     3    20    21    2
     4    21     1    1
     5     1     2    2
     6     2     3    1
     7     3     4   ar
     8     4     5   ar
     9     5     6    1
    10     5     7   ar
    11     7     8   ar
    12     8     9   ar
    13     9    10    1
    14    10    11    1
    15    11    12   ar
    16    12    13   ar
    17    13    14   ar
    18    14    26    1
    19    26    27    1
    20    27    28    1
    21    27    29    1
    22    27    30    1
    23    14    15   ar
    24    15    16   ar
    25    21    22    1
    26    22    23    1
    27    23    24    1
    28    24    25    1
    29    24    19    1
    30    16     1    1
    31     9     3   ar
    32    16    11   ar
    33    10    17    1
@<TRIPOS>MOLECULE
*****
 30 33 0 0 0
SMALL
GASTEIGER

@<TRIPOS>ATOM
      1 C         141.1703  141.0453  164.6111 C.2     1  UNL1        0.0784
      2 N         141.7003  140.1900  165.7235 N.2     1  UNL1       -0.2444
      3 C         141.6179  140.4229  167.2030 C.ar    1  UNL1        0.0954
      4 C         142.2800  139.3166  167.9696 C.ar    1  UNL1        0.0317
      5 C         142.3094  139.3562  169.4688 C.ar    1  UNL1        0.0593
      6 CL        142.9716  138.2498  170.2355 Cl      1  UNL1       -0.0822
      7 C         141.6767  140.5020  170.2014 C.ar    1  UNL1        0.0128
      8 C         141.0146  141.6083  169.4348 C.ar    1  UNL1        0.0170
      9 C         140.9852  141.5687  167.9356 C.ar    1  UNL1        0.0662
     10 N         140.2786  142.7647  167.3695 N.pl3   1  UNL1       -0.3113
     11 C         140.0301  143.1102  165.9312 C.ar    1  UNL1        0.0500
     12 C         139.2825  144.4039  165.7995 C.ar    1  UNL1        0.0178
     13 C         138.9316  144.9324  164.4403 C.ar    1  UNL1        0.0385
     14 C         139.3284  144.1672  163.2127 C.ar    1  UNL1        0.1469
     15 C         140.0761  142.8735  163.3443 C.ar    1  UNL1        0.0399
     16 C         140.4270  142.3450  164.7036 C.ar    1  UNL1        0.0337
     17 H         139.9321  143.4079  168.0294 H       1  UNL1        0.1523
     18 C         139.5907  138.3342  160.4694 C.3     1  UNL1        0.0222
     19 C         140.6262  139.1779  161.1519 C.3     1  UNL1        0.0796
     20 C         140.3804  139.6897  162.5403 C.2     1  UNL1       -0.0132
     21 C         141.4160  140.5335  163.2228 C.2     1  UNL1       -0.0061
     22 C         142.6972  140.8653  162.5169 C.3     1  UNL1        0.0449
     23 C         142.9430  140.3535  161.1285 C.3     1  UNL1        0.0771
     24 N         141.9075  139.5097  160.4460 N.3     1  UNL1       -0.2688
     25 C         142.1532  138.9979  159.0577 C.3     1  UNL1        0.0899
     26 O         138.9776  144.6958  161.8535 O.3     1  UNL1       -0.4045
     27 C         140.0577  145.2004  160.9432 C.3     1  UNL1        0.5753
     28 F         141.1379  145.7050  160.0328 F       1  UNL1       -0.1328
     29 F         140.0775  146.5021  161.6882 F       1  UNL1       -0.1328
     30 F         140.0379  143.8986  160.1981 F       1  UNL1       -0.1328
@<TRIPOS>BOND
     1    19    18    1
     2    19    20    1
     3    20    21    2
     4    21     1    1
     5     1     2    2
     6     2     3    1
     7     3     4   ar
     8     4     5   ar
     9     5     6    1
    10     5     7   ar
    11     7     8   ar
    12     8     9   ar
    13     9    10    1
    14    10    11    1
    15    11    12   ar
    16    12    13   ar
    17    13    14   ar
    18    14    26    1
    19    26    27    1
    20    27    28    1
    21    27    29    1
    22    27    30    1
    23    14    15   ar
    24    15    16   ar
    25    21    22    1
    26    22    23    1
    27    23    24    1
    28    24    25    1
    29    24    19    1
    30    16     1    1
    31     9     3   ar
    32    16    11   ar
    33    10    17    1
@<TRIPOS>MOLECULE
*****
 30 33 0 0 0
SMALL
GASTEIGER

@<TRIPOS>ATOM
      1 C         140.2391  141.6312  164.1141 C.2     1  UNL1        0.0784
      2 N         140.4235  142.4036  165.3866 N.2     1  UNL1       -0.2444
      3 C         140.1947  141.9497  166.7978 C.ar    1  UNL1        0.0954
      4 C         140.5006  143.0406  167.7808 C.ar    1  UNL1        0.0317
      5 C         140.3367  142.7929  169.2511 C.ar    1  UNL1        0.0593
      6 CL        140.6426  143.8838  170.2342 Cl      1  UNL1       -0.0822
      7 C         139.8669  141.4543  169.7384 C.ar    1  UNL1        0.0128
      8 C         139.5610  140.3634  168.7554 C.ar    1  UNL1        0.0170
      9 C         139.7249  140.6111  167.2851 C.ar    1  UNL1        0.0662
     10 N         139.3679  139.3959  166.4815 N.pl3   1  UNL1       -0.3113
     11 C         139.3925  139.2190  164.9921 C.ar    1  UNL1        0.0500
     12 C         138.9581  137.8388  164.5968 C.ar    1  UNL1        0.0178
     13 C         138.9115  137.4534  163.1479 C.ar    1  UNL1        0.0385
     14 C         139.2992  138.4481  162.0944 C.ar    1  UNL1        0.1469
     15 C         139.7336  139.8284  162.4897 C.ar    1  UNL1        0.0399
     16 C         139.7802  140.2139  163.9386 C.ar    1  UNL1        0.0337
     17 H         139.0792  138.6104  167.0001 H       1  UNL1        0.1523
     18 C         143.6175  142.9430  160.3905 C.3     1  UNL1        0.0222
     19 C         142.2445  143.0301  160.9882 C.3     1  UNL1        0.0796
     20 C         141.9283  142.2871  162.2523 C.2     1  UNL1       -0.0132
     21 C         140.5553  142.3742  162.8500 C.2     1  UNL1       -0.0061
     22 C         139.4985  143.2042  162.1836 C.3     1  UNL1        0.0449
     23 C         139.8146  143.9473  160.9195 C.3     1  UNL1        0.0771
     24 N         141.1877  143.8602  160.3218 N.3     1  UNL1       -0.2688
     25 C         141.5039  144.6032  159.0577 C.3     1  UNL1        0.0899
     26 O         139.2525  138.0627  160.6455 O.3     1  UNL1       -0.4045
     27 C         140.2325  138.6588  159.6789 C.3     1  UNL1        0.5753
     28 F         141.2125  139.2548  158.7123 F       1  UNL1       -0.1328
     29 F         139.1040  139.3122  158.9377 F       1  UNL1       -0.1328
     30 F         141.3610  138.0053  160.4202 F       1  UNL1       -0.1328
@<TRIPOS>BOND
     1    19    18    1
     2    19    20    1
     3    20    21    2
     4    21     1    1
     5     1     2    2
     6     2     3    1
     7     3     4   ar
     8     4     5   ar
     9     5     6    1
    10     5     7   ar
    11     7     8   ar
    12     8     9   ar
    13     9    10    1
    14    10    11    1
    15    11    12   ar
    16    12    13   ar
    17    13    14   ar
    18    14    26    1
    19    26    27    1
    20    27    28    1
    21    27    29    1
    22    27    30    1
    23    14    15   ar
    24    15    16   ar
    25    21    22    1
    26    22    23    1
    27    23    24    1
    28    24    25    1
    29    24    19    1
    30    16     1    1
    31     9     3   ar
    32    16    11   ar
    33    10    17    1
@<TRIPOS>MOLECULE
*****
 30 33 0 0 0
SMALL
GASTEIGER

@<TRIPOS>ATOM
      1 C         141.0016  141.5546  164.4803 C.2     1  UNL1        0.0784
      2 N         140.8215  140.8735  165.8045 N.2     1  UNL1       -0.2444
      3 C         141.5983  141.0727  167.0722 C.ar    1  UNL1        0.0954
      4 C         141.0909  140.1865  168.1709 C.ar    1  UNL1        0.0317
      5 C         141.7324  140.2300  169.5261 C.ar    1  UNL1        0.0593
      6 CL        141.2250  139.3439  170.6249 Cl      1  UNL1       -0.0822
      7 C         142.8813  141.1597  169.7825 C.ar    1  UNL1        0.0128
      8 C         143.3887  142.0458  168.6838 C.ar    1  UNL1        0.0170
      9 C         142.7472  142.0023  167.3286 C.ar    1  UNL1        0.0662
     10 N         143.4030  142.9623  166.3808 N.pl3   1  UNL1       -0.3113
     11 C         143.0720  143.2298  164.9425 C.ar    1  UNL1        0.0500
     12 C         143.9776  144.2720  164.3562 C.ar    1  UNL1        0.0178
     13 C         143.8145  144.6877  162.9242 C.ar    1  UNL1        0.0385
     14 C         142.7459  144.0612  162.0785 C.ar    1  UNL1        0.1469
     15 C         141.8402  143.0190  162.6647 C.ar    1  UNL1        0.0399
     16 C         142.0032  142.6033  164.0967 C.ar    1  UNL1        0.0337
     17 H         144.1495  143.4861  166.7518 H       1  UNL1        0.1523
     18 C         139.8148  138.4097  160.5180 C.3     1  UNL1        0.0222
     19 C         139.4617  139.5587  161.4153 C.3     1  UNL1        0.0796
     20 C         140.4083  139.9821  162.4991 C.2     1  UNL1       -0.0132
     21 C         140.0552  141.1311  163.3965 C.2     1  UNL1       -0.0061
     22 C         138.7556  141.8566  163.2099 C.3     1  UNL1        0.0449
     23 C         137.8091  141.4332  162.1261 C.3     1  UNL1        0.0771
     24 N         138.1621  140.2841  161.2287 N.3     1  UNL1       -0.2688
     25 C         137.2157  139.8607  160.1449 C.3     1  UNL1        0.0899
     26 O         142.5828  144.4769  160.6465 O.3     1  UNL1       -0.4045
     27 C         141.2104  144.6754  160.0747 C.3     1  UNL1        0.5753
     28 F         139.8379  144.8738  159.5029 F       1  UNL1       -0.1328
     29 F         140.9366  145.7355  161.0999 F       1  UNL1       -0.1328
     30 F         141.4842  143.6152  159.0495 F       1  UNL1       -0.1328
@<TRIPOS>BOND
     1    19    18    1
     2    19    20    1
     3    20    21    2
     4    21     1    1
     5     1     2    2
     6     2     3    1
     7     3     4   ar
     8     4     5   ar
     9     5     6    1
    10     5     7   ar
    11     7     8   ar
    12     8     9   ar
    13     9    10    1
    14    10    11    1
    15    11    12   ar
    16    12    13   ar
    17    13    14   ar
    18    14    26    1
    19    26    27    1
    20    27    28    1
    21    27    29    1
    22    27    30    1
    23    14    15   ar
    24    15    16   ar
    25    21    22    1
    26    22    23    1
    27    23    24    1
    28    24    25    1
    29    24    19    1
    30    16     1    1
    31     9     3   ar
    32    16    11   ar
    33    10    17    1
@<TRIPOS>MOLECULE
*****
 30 33 0 0 0
SMALL
GASTEIGER

@<TRIPOS>ATOM
      1 C         141.8850  140.8026  164.7974 C.2     1  UNL1        0.0784
      2 N         142.3394  141.5556  166.0125 N.2     1  UNL1       -0.2444
      3 C         141.8617  141.4226  167.4282 C.ar    1  UNL1        0.0954
      4 C         142.5829  142.3693  168.3412 C.ar    1  UNL1        0.0317
      5 C         142.2540  142.3971  169.8044 C.ar    1  UNL1        0.0593
      6 CL        142.9752  143.3439  170.7174 Cl      1  UNL1       -0.0822
      7 C         141.2038  141.4782  170.3546 C.ar    1  UNL1        0.0128
      8 C         140.4827  140.5315  169.4417 C.ar    1  UNL1        0.0170
      9 C         140.8116  140.5037  167.9785 C.ar    1  UNL1        0.0662
     10 N         139.9798  139.4908  167.2489 N.pl3   1  UNL1       -0.3113
     11 C         139.9926  139.1467  165.7890 C.ar    1  UNL1        0.0500
     12 C         138.9974  138.0705  165.4707 C.ar    1  UNL1        0.0178
     13 C         138.8501  137.5781  164.0615 C.ar    1  UNL1        0.0385
     14 C         139.6979  138.1619  162.9706 C.ar    1  UNL1        0.1469
     15 C         140.6932  139.2381  163.2888 C.ar    1  UNL1        0.0399
     16 C         140.8406  139.7306  164.6980 C.ar    1  UNL1        0.0337
     17 H         139.3409  138.9850  167.8013 H       1  UNL1        0.1523
     18 C         142.1464  143.7547  160.5294 C.3     1  UNL1        0.0222
     19 C         142.6955  142.6463  161.3778 C.3     1  UNL1        0.0796
     20 C         142.0156  142.2787  162.6634 C.2     1  UNL1       -0.0132
     21 C         142.5648  141.1703  163.5119 C.2     1  UNL1       -0.0061
     22 C         143.7937  140.4295  163.0749 C.3     1  UNL1        0.0449
     23 C         144.4736  140.7972  161.7893 C.3     1  UNL1        0.0771
     24 N         143.9244  141.9056  160.9408 N.3     1  UNL1       -0.2688
     25 C         144.6042  142.2732  159.6553 C.3     1  UNL1        0.0899
     26 O         139.5506  137.6695  161.5614 O.3     1  UNL1       -0.4045
     27 C         139.1781  138.6261  160.4677 C.3     1  UNL1        0.5753
     28 F         138.8056  139.5827  159.3740 F       1  UNL1       -0.1328
     29 F         137.8157  138.7886  161.0740 F       1  UNL1       -0.1328
     30 F         140.5405  138.4635  159.8615 F       1  UNL1       -0.1328
@<TRIPOS>BOND
     1    19    18    1
     2    19    20    1
     3    20    21    2
     4    21     1    1
     5     1     2    2
     6     2     3    1
     7     3     4   ar
     8     4     5   ar
     9     5     6    1
    10     5     7   ar
    11     7     8   ar
    12     8     9   ar
    13     9    10    1
    14    10    11    1
    15    11    12   ar
    16    12    13   ar
    17    13    14   ar
    18    14    26    1
    19    26    27    1
    20    27    28    1
    21    27    29    1
    22    27    30    1
    23    14    15   ar
    24    15    16   ar
    25    21    22    1
    26    22    23    1
    27    23    24    1
    28    24    25    1
    29    24    19    1
    30    16     1    1
    31     9     3   ar
    32    16    11   ar
    33    10    17    1
@<TRIPOS>MOLECULE
*****
 30 33 0 0 0
SMALL
GASTEIGER

@<TRIPOS>ATOM
      1 C         141.5301  141.9344  165.2430 C.2     1  UNL1        0.0784
      2 N         141.4560  142.1803  166.7208 N.2     1  UNL1       -0.2444
      3 C         141.8464  141.2638  167.8423 C.ar    1  UNL1        0.0954
      4 C         141.6110  141.9022  169.1790 C.ar    1  UNL1        0.0317
      5 C         141.9364  141.1517  170.4363 C.ar    1  UNL1        0.0593
      6 CL        141.7011  141.7901  171.7731 Cl      1  UNL1       -0.0822
      7 C         142.4973  139.7627  170.3568 C.ar    1  UNL1        0.0128
      8 C         142.7327  139.1243  169.0200 C.ar    1  UNL1        0.0170
      9 C         142.4072  139.8748  167.7628 C.ar    1  UNL1        0.0662
     10 N         142.7162  139.0595  166.5422 N.pl3   1  UNL1       -0.3113
     11 C         142.5408  139.4316  165.0997 C.ar    1  UNL1        0.0500
     12 C         142.9749  138.3205  164.1903 C.ar    1  UNL1        0.0178
     13 C         142.8811  138.4888  162.7028 C.ar    1  UNL1        0.0385
     14 C         142.3532  139.7682  162.1246 C.ar    1  UNL1        0.1469
     15 C         141.9191  140.8794  163.0340 C.ar    1  UNL1        0.0399
     16 C         142.0129  140.7111  164.5215 C.ar    1  UNL1        0.0337
     17 H         143.0827  138.1613  166.7101 H       1  UNL1        0.1523
     18 C         137.6725  144.4627  162.8500 C.3     1  UNL1        0.0222
     19 C         139.1304  144.3248  163.1748 C.3     1  UNL1        0.0796
     20 C         139.6013  143.1985  164.0465 C.2     1  UNL1       -0.0132
     21 C         141.0592  143.0606  164.3714 C.2     1  UNL1       -0.0061
     22 C         142.0462  144.0490  163.8245 C.3     1  UNL1        0.0449
     23 C         141.5753  145.1753  162.9529 C.3     1  UNL1        0.0771
     24 N         140.1174  145.3132  162.6280 N.3     1  UNL1       -0.2688
     25 C         139.6465  146.4394  161.7564 C.3     1  UNL1        0.0899
     26 O         142.2595  139.9366  160.6370 O.3     1  UNL1       -0.4045
     27 C         142.5721  138.7831  159.7305 C.3     1  UNL1        0.5753
     28 F         142.8848  137.6297  158.8239 F       1  UNL1       -0.1328
     29 F         141.1614  138.2925  159.8684 F       1  UNL1       -0.1328
     30 F         143.9828  139.2739  159.5927 F       1  UNL1       -0.1328
@<TRIPOS>BOND
     1    19    18    1
     2    19    20    1
     3    20    21    2
     4    21     1    1
     5     1     2    2
     6     2     3    1
     7     3     4   ar
     8     4     5   ar
     9     5     6    1
    10     5     7   ar
    11     7     8   ar
    12     8     9   ar
    13     9    10    1
    14    10    11    1
    15    11    12   ar
    16    12    13   ar
    17    13    14   ar
    18    14    26    1
    19    26    27    1
    20    27    28    1
    21    27    29    1
    22    27    30    1
    23    14    15   ar
    24    15    16   ar
    25    21    22    1
    26    22    23    1
    27    23    24    1
    28    24    25    1
    29    24    19    1
    30    16     1    1
    31     9     3   ar
    32    16    11   ar
    33    10    17    1
@<TRIPOS>MOLECULE
*****
 30 33 0 0 0
SMALL
GASTEIGER

@<TRIPOS>ATOM
      1 C         140.5846  142.4007  161.2126 C.2     1  UNL1        0.0784
      2 N         140.6056  143.2847  160.0010 N.2     1  UNL1       -0.2444
      3 C         139.7272  143.2280  158.7864 C.ar    1  UNL1        0.0954
      4 C         140.0835  144.3020  157.8017 C.ar    1  UNL1        0.0317
      5 C         139.3233  144.4212  156.5142 C.ar    1  UNL1        0.0593
      6 CL        139.6797  145.4952  155.5295 Cl      1  UNL1       -0.0822
      7 C         138.2068  143.4664  156.2113 C.ar    1  UNL1        0.0128
      8 C         137.8505  142.3924  157.1959 C.ar    1  UNL1        0.0170
      9 C         138.6107  142.2733  158.4835 C.ar    1  UNL1        0.0662
     10 N         138.0969  141.1394  159.3203 N.pl3   1  UNL1       -0.3113
     11 C         138.5726  140.6801  160.6667 C.ar    1  UNL1        0.0500
     12 C         137.7815  139.5032  161.1555 C.ar    1  UNL1        0.0178
     13 C         138.0974  138.8876  162.4863 C.ar    1  UNL1        0.0385
     14 C         139.2045  139.4489  163.3284 C.ar    1  UNL1        0.1469
     15 C         139.9957  140.6259  162.8397 C.ar    1  UNL1        0.0399
     16 C         139.6797  141.2415  161.5088 C.ar    1  UNL1        0.0337
     17 H         137.3484  140.6290  158.9349 H       1  UNL1        0.1523
     18 C         145.3416  141.7751  163.2073 C.3     1  UNL1        0.0222
     19 C         143.9814  142.4049  163.2647 C.3     1  UNL1        0.0796
     20 C         142.9631  142.0879  162.2099 C.2     1  UNL1       -0.0132
     21 C         141.6029  142.7176  162.2673 C.2     1  UNL1       -0.0061
     22 C         141.2610  143.6642  163.3795 C.3     1  UNL1        0.0449
     23 C         142.2793  143.9812  164.4343 C.3     1  UNL1        0.0771
     24 N         143.6395  143.3515  164.3769 N.3     1  UNL1       -0.2688
     25 C         144.6578  143.6685  165.4316 C.3     1  UNL1        0.0899
     26 O         139.5205  138.8333  164.6593 O.3     1  UNL1       -0.4045
     27 C         138.4338  138.6464  165.6762 C.3     1  UNL1        0.5753
     28 F         137.3470  138.4596  166.6931 F       1  UNL1       -0.1328
     29 F         138.5921  137.1585  165.5719 F       1  UNL1       -0.1328
     30 F         138.2755  140.1345  165.7804 F       1  UNL1       -0.1328
@<TRIPOS>BOND
     1    19    18    1
     2    19    20    1
     3    20    21    2
     4    21     1    1
     5     1     2    2
     6     2     3    1
     7     3     4   ar
     8     4     5   ar
     9     5     6    1
    10     5     7   ar
    11     7     8   ar
    12     8     9   ar
    13     9    10    1
    14    10    11    1
    15    11    12   ar
    16    12    13   ar
    17    13    14   ar
    18    14    26    1
    19    26    27    1
    20    27    28    1
    21    27    29    1
    22    27    30    1
    23    14    15   ar
    24    15    16   ar
    25    21    22    1
    26    22    23    1
    27    23    24    1
    28    24    25    1
    29    24    19    1
    30    16     1    1
    31     9     3   ar
    32    16    11   ar
    33    10    17    1
@<TRIPOS>MOLECULE
*****
 30 33 0 0 0
SMALL
GASTEIGER

@<TRIPOS>ATOM
      1 C         141.0632  141.4191  164.4493 C.2     1  UNL1        0.0784
      2 N         140.4691  141.6689  165.8038 N.2     1  UNL1       -0.2444
      3 C         141.1693  142.0314  167.0799 C.ar    1  UNL1        0.0954
      4 C         140.1980  142.1922  168.2115 C.ar    1  UNL1        0.0317
      5 C         140.6939  142.5551  169.5798 C.ar    1  UNL1        0.0593
      6 CL        139.7225  142.7159  170.7115 Cl      1  UNL1       -0.0822
      7 C         142.1613  142.7572  169.8165 C.ar    1  UNL1        0.0128
      8 C         143.1327  142.5964  168.6849 C.ar    1  UNL1        0.0170
      9 C         142.6367  142.2335  167.3167 C.ar    1  UNL1        0.0662
     10 N         143.7662  142.1231  166.3357 N.pl3   1  UNL1       -0.3113
     11 C         143.7073  141.7833  164.8759 C.ar    1  UNL1        0.0500
     12 C         145.0743  141.7799  164.2584 C.ar    1  UNL1        0.0178
     13 C         145.2384  141.4633  162.8014 C.ar    1  UNL1        0.0385
     14 C         144.0355  141.1501  161.9619 C.ar    1  UNL1        0.1469
     15 C         142.6684  141.1534  162.5794 C.ar    1  UNL1        0.0399
     16 C         142.5043  141.4700  164.0364 C.ar    1  UNL1        0.0337
     17 H         144.6650  142.2965  166.6980 H       1  UNL1        0.1523
     18 C         138.1828  137.8929  161.9457 C.3     1  UNL1        0.0222
     19 C         138.6469  139.3095  162.1125 C.3     1  UNL1        0.0796
     20 C         139.6230  139.6560  163.1975 C.2     1  UNL1       -0.0132
     21 C         140.0871  141.0726  163.3644 C.2     1  UNL1       -0.0061
     22 C         139.5752  142.1426  162.4463 C.3     1  UNL1        0.0449
     23 C         138.5991  141.7962  161.3613 C.3     1  UNL1        0.0771
     24 N         138.1350  140.3795  161.1944 N.3     1  UNL1       -0.2688
     25 C         137.1589  140.0330  160.1095 C.3     1  UNL1        0.0899
     26 O         144.1995  140.8334  160.5050 O.3     1  UNL1       -0.4045
     27 C         143.5438  139.6162  159.9235 C.3     1  UNL1        0.5753
     28 F         142.8879  138.3989  159.3420 F       1  UNL1       -0.1328
     29 F         144.5469  138.7439  160.6182 F       1  UNL1       -0.1328
     30 F         142.5406  140.4885  159.2287 F       1  UNL1       -0.1328
@<TRIPOS>BOND
     1    19    18    1
     2    19    20    1
     3    20    21    2
     4    21     1    1
     5     1     2    2
     6     2     3    1
     7     3     4   ar
     8     4     5   ar
     9     5     6    1
    10     5     7   ar
    11     7     8   ar
    12     8     9   ar
    13     9    10    1
    14    10    11    1
    15    11    12   ar
    16    12    13   ar
    17    13    14   ar
    18    14    26    1
    19    26    27    1
    20    27    28    1
    21    27    29    1
    22    27    30    1
    23    14    15   ar
    24    15    16   ar
    25    21    22    1
    26    22    23    1
    27    23    24    1
    28    24    25    1
    29    24    19    1
    30    16     1    1
    31     9     3   ar
    32    16    11   ar
    33    10    17    1
