@<TRIPOS>MOLECULE
*****
 32 36 0 0 0
SMALL
GASTEIGER

@<TRIPOS>ATOM
      1 N         139.6142  139.2156  165.3208 N.pl3   1  UNL1       -0.3077
      2 C         139.3894  137.8635  164.7116 C.3     1  UNL1        0.0909
      3 C         138.7193  138.0589  163.3839 C.3     1  UNL1        0.0245
      4 C         138.5298  139.5318  163.1726 C.3     1  UNL1        0.0372
      5 C         137.9986  140.5629  162.2214 C.3     1  UNL1        0.0738
      6 N         138.2233  141.9149  162.8307 N.3     1  UNL1       -0.2712
      7 C         138.8935  141.7196  164.1583 C.3     1  UNL1        0.0921
      8 C         139.0829  140.2467  164.3697 C.3     1  UNL1        0.0901
      9 C         141.5435  140.0351  169.3028 C.ar    1  UNL1        0.1388
     10 C         142.3904  139.6679  168.1205 C.ar    1  UNL1        0.0382
     11 C         141.7472  139.3947  166.7932 C.ar    1  UNL1        0.0176
     12 C         140.2572  139.4888  166.6481 C.ar    1  UNL1        0.0480
     13 C         139.4103  139.8560  167.8304 C.ar    1  UNL1        0.0176
     14 C         140.0535  140.1292  169.1578 C.ar    1  UNL1        0.0382
     15 C         141.8762  141.5775  171.3668 C.3     1  UNL1        0.2525
     16 O         142.1866  140.3083  170.6302 O.3     1  UNL1       -0.4714
     17 C         137.8444  143.2314  162.2196 C.3     1  UNL1        0.0731
     18 C         138.2788  144.5121  162.8683 C.3     1  UNL1        0.0294
     19 C         139.2375  145.4236  162.1612 C.3     1  UNL1        0.0666
     20 S         140.6846  145.4418  162.5558 S.3     1  UNL1       -0.0756
     21 C         141.3705  144.1674  162.9504 C.ar    1  UNL1        0.1933
     22 N         141.9192  143.8456  164.3089 N.ar    1  UNL1       -0.1221
     23 N         142.5158  142.4705  164.2540 N.ar    1  UNL1       -0.1266
     24 C         142.3359  141.9424  162.8616 C.ar    1  UNL1        0.1862
     25 N         141.6280  142.9912  162.0560 N.ar    1  UNL1       -0.2872
     26 C         141.2450  142.8827  160.6098 C.3     1  UNL1        0.1340
     27 C         142.7850  140.6011  162.3624 C.ar    1  UNL1        0.1362
     28 C         143.8315  140.5113  161.2916 C.ar    1  UNL1        0.1211
     29 N         144.2805  139.1698  160.7924 N.ar    1  UNL1       -0.2390
     30 C         143.6831  137.9184  161.3641 C.ar    1  UNL1        0.1195
     31 C         142.6365  138.0082  162.4350 C.ar    1  UNL1        0.1196
     32 N         142.1875  139.3496  162.9342 N.ar    1  UNL1       -0.2375
@<TRIPOS>BOND
     1    15    16    1
     2    16     9    1
     3     9    10   ar
     4    10    11   ar
     5    11    12   ar
     6    12     1    1
     7     1     2    1
     8     2     3    1
     9     3     4    1
    10     4     5    1
    11     5     6    1
    12     6    17    1
    13    17    18    1
    14    18    19    1
    15    19    20    1
    16    20    21    1
    17    21    22   ar
    18    22    23   ar
    19    23    24   ar
    20    24    27    1
    21    27    28   ar
    22    28    29   ar
    23    29    30   ar
    24    30    31   ar
    25    31    32   ar
    26    24    25   ar
    27    25    26    1
    28     6     7    1
    29     7     8    1
    30    12    13   ar
    31    13    14   ar
    32    14     9   ar
    33     8     1    1
    34     8     4    1
    35    25    21   ar
    36    32    27   ar
@<TRIPOS>MOLECULE
*****
 32 36 0 0 0
SMALL
GASTEIGER

@<TRIPOS>ATOM
      1 N         139.8509  139.2414  165.9689 N.pl3   1  UNL1       -0.3077
      2 C         138.6467  138.3960  165.6775 C.3     1  UNL1        0.0909
      3 C         138.9446  137.5680  164.4627 C.3     1  UNL1        0.0245
      4 C         140.3330  137.9017  164.0034 C.3     1  UNL1        0.0372
      5 C         141.3753  137.5962  162.9688 C.3     1  UNL1        0.0738
      6 N         142.5794  138.4417  163.2602 N.3     1  UNL1       -0.2712
      7 C         142.2815  139.2697  164.4749 C.3     1  UNL1        0.0921
      8 C         140.8931  138.9360  164.9342 C.3     1  UNL1        0.0901
      9 C         140.2646  142.1787  169.3529 C.ar    1  UNL1        0.1388
     10 C         140.8624  142.4895  168.0127 C.ar    1  UNL1        0.0382
     11 C         140.7245  141.5103  166.8848 C.ar    1  UNL1        0.0176
     12 C         139.9888  140.2205  167.0969 C.ar    1  UNL1        0.0480
     13 C         139.3909  139.9098  168.4370 C.ar    1  UNL1        0.0176
     14 C         139.5288  140.8889  169.5650 C.ar    1  UNL1        0.0382
     15 C         140.2377  144.6264  170.2236 C.3     1  UNL1        0.2525
     16 O         140.4024  143.1578  170.4809 O.3     1  UNL1       -0.4714
     17 C         143.8573  138.4565  162.4748 C.3     1  UNL1        0.0731
     18 C         144.1976  139.6401  161.6185 C.3     1  UNL1        0.0294
     19 C         143.7294  139.6949  160.1944 C.3     1  UNL1        0.0666
     20 S         143.3775  141.0130  159.5708 S.3     1  UNL1       -0.0756
     21 C         142.8193  142.1181  160.4177 C.ar    1  UNL1        0.1933
     22 N         143.4177  143.4822  160.5939 N.ar    1  UNL1       -0.1221
     23 N         142.5329  144.2603  161.5221 N.ar    1  UNL1       -0.1266
     24 C         141.3875  143.3771  161.9197 C.ar    1  UNL1        0.1862
     25 N         141.5645  142.0531  161.2371 N.ar    1  UNL1       -0.2872
     26 C         140.6477  140.8717  161.3535 C.3     1  UNL1        0.1340
     27 C         140.2627  143.7519  162.8384 C.ar    1  UNL1        0.1362
     28 C         140.5456  144.0859  164.2731 C.ar    1  UNL1        0.1211
     29 N         139.4207  144.4607  165.1918 N.ar    1  UNL1       -0.2390
     30 C         138.0128  144.5016  164.6759 C.ar    1  UNL1        0.1195
     31 C         137.7298  144.1676  163.2412 C.ar    1  UNL1        0.1196
     32 N         138.8547  143.7928  162.3224 N.ar    1  UNL1       -0.2375
@<TRIPOS>BOND
     1    15    16    1
     2    16     9    1
     3     9    10   ar
     4    10    11   ar
     5    11    12   ar
     6    12     1    1
     7     1     2    1
     8     2     3    1
     9     3     4    1
    10     4     5    1
    11     5     6    1
    12     6    17    1
    13    17    18    1
    14    18    19    1
    15    19    20    1
    16    20    21    1
    17    21    22   ar
    18    22    23   ar
    19    23    24   ar
    20    24    27    1
    21    27    28   ar
    22    28    29   ar
    23    29    30   ar
    24    30    31   ar
    25    31    32   ar
    26    24    25   ar
    27    25    26    1
    28     6     7    1
    29     7     8    1
    30    12    13   ar
    31    13    14   ar
    32    14     9   ar
    33     8     1    1
    34     8     4    1
    35    25    21   ar
    36    32    27   ar
@<TRIPOS>MOLECULE
*****
 32 36 0 0 0
SMALL
GASTEIGER

@<TRIPOS>ATOM
      1 N         143.8576  141.7047  164.5642 N.pl3   1  UNL1       -0.3077
      2 C         145.1999  141.1205  164.2371 C.3     1  UNL1        0.0909
      3 C         145.5722  141.5612  162.8525 C.3     1  UNL1        0.0245
      4 C         144.4600  142.4177  162.3238 C.3     1  UNL1        0.0372
      5 C         144.0028  143.2194  161.1414 C.3     1  UNL1        0.0738
      6 N         142.6605  143.8035  161.4685 N.3     1  UNL1       -0.2712
      7 C         142.2882  143.3629  162.8531 C.3     1  UNL1        0.0921
      8 C         143.4003  142.5064  163.3818 C.3     1  UNL1        0.0901
      9 C         141.5990  141.1497  168.4166 C.ar    1  UNL1        0.1388
     10 C         142.5672  142.2862  168.2719 C.ar    1  UNL1        0.0382
     11 C         143.3201  142.4712  166.9877 C.ar    1  UNL1        0.0176
     12 C         143.1048  141.5197  165.8483 C.ar    1  UNL1        0.0480
     13 C         142.1366  140.3832  165.9930 C.ar    1  UNL1        0.0176
     14 C         141.3837  140.1983  167.2772 C.ar    1  UNL1        0.0382
     15 C         139.5633  140.1874  169.7126 C.3     1  UNL1        0.2525
     16 O         140.8461  140.9647  169.7007 O.3     1  UNL1       -0.4714
     17 C         141.8354  144.6753  160.5689 C.3     1  UNL1        0.0731
     18 C         140.3493  144.7533  160.7570 C.3     1  UNL1        0.0294
     19 C         139.7721  145.6640  161.7998 C.3     1  UNL1        0.0666
     20 S         138.8320  145.1193  162.8340 S.3     1  UNL1       -0.0756
     21 C         138.4472  143.6697  162.8085 C.ar    1  UNL1        0.1933
     22 N         137.6219  142.9950  161.7532 N.ar    1  UNL1       -0.1221
     23 N         137.4847  141.5486  162.1262 N.ar    1  UNL1       -0.1266
     24 C         138.2253  141.3294  163.4121 C.ar    1  UNL1        0.1862
     25 N         138.8201  142.6403  163.8337 N.ar    1  UNL1       -0.2872
     26 C         139.6433  142.8797  165.0646 C.3     1  UNL1        0.1340
     27 C         138.3493  140.0278  164.1473 C.ar    1  UNL1        0.1362
     28 C         138.8072  138.7974  163.4219 C.ar    1  UNL1        0.1211
     29 N         138.9312  137.4958  164.1572 N.ar    1  UNL1       -0.2390
     30 C         138.5972  137.4247  165.6178 C.ar    1  UNL1        0.1195
     31 C         138.1392  138.6552  166.3432 C.ar    1  UNL1        0.1196
     32 N         138.0152  139.9567  165.6080 N.ar    1  UNL1       -0.2375
@<TRIPOS>BOND
     1    15    16    1
     2    16     9    1
     3     9    10   ar
     4    10    11   ar
     5    11    12   ar
     6    12     1    1
     7     1     2    1
     8     2     3    1
     9     3     4    1
    10     4     5    1
    11     5     6    1
    12     6    17    1
    13    17    18    1
    14    18    19    1
    15    19    20    1
    16    20    21    1
    17    21    22   ar
    18    22    23   ar
    19    23    24   ar
    20    24    27    1
    21    27    28   ar
    22    28    29   ar
    23    29    30   ar
    24    30    31   ar
    25    31    32   ar
    26    24    25   ar
    27    25    26    1
    28     6     7    1
    29     7     8    1
    30    12    13   ar
    31    13    14   ar
    32    14     9   ar
    33     8     1    1
    34     8     4    1
    35    25    21   ar
    36    32    27   ar
@<TRIPOS>MOLECULE
*****
 32 36 0 0 0
SMALL
GASTEIGER

@<TRIPOS>ATOM
      1 N         139.9538  139.1853  165.7204 N.pl3   1  UNL1       -0.3077
      2 C         138.6828  138.4207  165.4970 C.3     1  UNL1        0.0909
      3 C         138.8665  137.5613  164.2814 C.3     1  UNL1        0.0245
      4 C         140.2510  137.7947  163.7536 C.3     1  UNL1        0.0372
      5 C         141.2202  137.4079  162.6761 C.3     1  UNL1        0.0738
      6 N         142.4912  138.1724  162.8996 N.3     1  UNL1       -0.2712
      7 C         142.3076  139.0318  164.1151 C.3     1  UNL1        0.0921
      8 C         140.9230  138.7984  164.6430 C.3     1  UNL1        0.0901
      9 C         140.7242  142.1238  169.0404 C.ar    1  UNL1        0.1388
     10 C         141.3814  142.3116  167.7051 C.ar    1  UNL1        0.0382
     11 C         141.1245  141.3320  166.5985 C.ar    1  UNL1        0.0176
     12 C         140.2106  140.1648  166.8271 C.ar    1  UNL1        0.0480
     13 C         139.5534  139.9771  168.1623 C.ar    1  UNL1        0.0176
     14 C         139.8102  140.9566  169.2689 C.ar    1  UNL1        0.0382
     15 C         140.3111  144.4454  170.1311 C.3     1  UNL1        0.2525
     16 O         140.9809  143.1033  170.1470 O.3     1  UNL1       -0.4714
     17 C         143.7286  138.0917  162.0556 C.3     1  UNL1        0.0731
     18 C         143.7694  138.7688  160.7178 C.3     1  UNL1        0.0294
     19 C         142.9900  138.2041  159.5673 C.3     1  UNL1        0.0666
     20 S         141.8904  139.0084  158.9396 S.3     1  UNL1       -0.0756
     21 C         140.7114  139.4369  159.7619 C.ar    1  UNL1        0.1933
     22 N         139.4110  138.7002  159.8896 N.ar    1  UNL1       -0.1221
     23 N         138.5216  139.4854  160.8075 N.ar    1  UNL1       -0.1266
     24 C         139.2723  140.7074  161.2471 C.ar    1  UNL1        0.1862
     25 N         140.6256  140.6774  160.6008 N.ar    1  UNL1       -0.2872
     26 C         141.7039  141.7072  160.7648 C.3     1  UNL1        0.1340
     27 C         138.7597  141.7723  162.1707 C.ar    1  UNL1        0.1362
     28 C         138.3035  143.0895  161.6168 C.ar    1  UNL1        0.1211
     29 N         137.7909  144.1544  162.5405 N.ar    1  UNL1       -0.2390
     30 C         137.7344  143.9021  164.0181 C.ar    1  UNL1        0.1195
     31 C         138.1907  142.5849  164.5720 C.ar    1  UNL1        0.1196
     32 N         138.7033  141.5200  163.6483 N.ar    1  UNL1       -0.2375
@<TRIPOS>BOND
     1    15    16    1
     2    16     9    1
     3     9    10   ar
     4    10    11   ar
     5    11    12   ar
     6    12     1    1
     7     1     2    1
     8     2     3    1
     9     3     4    1
    10     4     5    1
    11     5     6    1
    12     6    17    1
    13    17    18    1
    14    18    19    1
    15    19    20    1
    16    20    21    1
    17    21    22   ar
    18    22    23   ar
    19    23    24   ar
    20    24    27    1
    21    27    28   ar
    22    28    29   ar
    23    29    30   ar
    24    30    31   ar
    25    31    32   ar
    26    24    25   ar
    27    25    26    1
    28     6     7    1
    29     7     8    1
    30    12    13   ar
    31    13    14   ar
    32    14     9   ar
    33     8     1    1
    34     8     4    1
    35    25    21   ar
    36    32    27   ar
@<TRIPOS>MOLECULE
*****
 32 36 0 0 0
SMALL
GASTEIGER

@<TRIPOS>ATOM
      1 N         141.6335  139.6175  166.8059 N.pl3   1  UNL1       -0.3077
      2 C         142.9707  138.9388  166.8421 C.3     1  UNL1        0.0909
      3 C         143.0471  138.0026  165.6726 C.3     1  UNL1        0.0245
      4 C         141.7572  138.1026  164.9137 C.3     1  UNL1        0.0372
      5 C         141.0071  137.5857  163.7219 C.3     1  UNL1        0.0738
      6 N         139.6700  138.2644  163.6857 N.3     1  UNL1       -0.2712
      7 C         139.5935  139.2006  164.8551 C.3     1  UNL1        0.0921
      8 C         140.8835  139.1006  165.6141 C.3     1  UNL1        0.0901
      9 C         140.1349  142.6682  169.7550 C.ar    1  UNL1        0.1388
     10 C         140.3630  141.2516  170.1920 C.ar    1  UNL1        0.0382
     11 C         140.8625  140.2347  169.2089 C.ar    1  UNL1        0.0176
     12 C         141.1340  140.6344  167.7889 C.ar    1  UNL1        0.0480
     13 C         140.9058  142.0511  167.3518 C.ar    1  UNL1        0.0176
     14 C         140.4063  143.0680  168.3349 C.ar    1  UNL1        0.0382
     15 C         139.8808  145.1451  170.4967 C.3     1  UNL1        0.2525
     16 O         139.6353  143.6852  170.7380 O.3     1  UNL1       -0.4714
     17 C         138.5975  138.0452  162.6602 C.3     1  UNL1        0.0731
     18 C         137.8426  139.2153  162.1026 C.3     1  UNL1        0.0294
     19 C         137.6193  139.3280  160.6236 C.3     1  UNL1        0.0666
     20 S         138.1237  140.5281  159.8783 S.3     1  UNL1       -0.0756
     21 C         138.7383  141.6728  160.6279 C.ar    1  UNL1        0.1933
     22 N         138.0869  142.9947  160.9077 N.ar    1  UNL1       -0.1221
     23 N         139.0583  143.8355  161.6821 N.ar    1  UNL1       -0.1266
     24 C         140.3100  143.0332  161.8809 C.ar    1  UNL1        0.1862
     25 N         140.1122  141.6966  161.2294 N.ar    1  UNL1       -0.2872
     26 C         141.1127  140.5798  161.1869 C.3     1  UNL1        0.1340
     27 C         141.5429  143.4876  162.6043 C.ar    1  UNL1        0.1362
     28 C         142.4818  144.4573  161.9500 C.ar    1  UNL1        0.1211
     29 N         143.7148  144.9118  162.6734 N.ar    1  UNL1       -0.2390
     30 C         144.0089  144.3965  164.0511 C.ar    1  UNL1        0.1195
     31 C         143.0700  143.4267  164.7054 C.ar    1  UNL1        0.1196
     32 N         141.8370  142.9723  163.9820 N.ar    1  UNL1       -0.2375
@<TRIPOS>BOND
     1    15    16    1
     2    16     9    1
     3     9    10   ar
     4    10    11   ar
     5    11    12   ar
     6    12     1    1
     7     1     2    1
     8     2     3    1
     9     3     4    1
    10     4     5    1
    11     5     6    1
    12     6    17    1
    13    17    18    1
    14    18    19    1
    15    19    20    1
    16    20    21    1
    17    21    22   ar
    18    22    23   ar
    19    23    24   ar
    20    24    27    1
    21    27    28   ar
    22    28    29   ar
    23    29    30   ar
    24    30    31   ar
    25    31    32   ar
    26    24    25   ar
    27    25    26    1
    28     6     7    1
    29     7     8    1
    30    12    13   ar
    31    13    14   ar
    32    14     9   ar
    33     8     1    1
    34     8     4    1
    35    25    21   ar
    36    32    27   ar
@<TRIPOS>MOLECULE
*****
 32 36 0 0 0
SMALL
GASTEIGER

@<TRIPOS>ATOM
      1 N         138.7765  142.8419  162.2676 N.pl3   1  UNL1       -0.3077
      2 C         137.9606  143.5197  163.3281 C.3     1  UNL1        0.0909
      3 C         137.6454  142.5067  164.3885 C.3     1  UNL1        0.0245
      4 C         138.2666  141.2028  163.9834 C.3     1  UNL1        0.0372
      5 C         138.4557  139.7710  164.3883 C.3     1  UNL1        0.0738
      6 N         139.2716  139.0933  163.3277 N.3     1  UNL1       -0.2712
      7 C         139.5868  140.1062  162.2673 C.3     1  UNL1        0.0921
      8 C         138.9657  141.4100  162.6725 C.3     1  UNL1        0.0901
      9 C         140.3763  144.7662  158.5275 C.ar    1  UNL1        0.1388
     10 C         139.6049  143.4828  158.4396 C.ar    1  UNL1        0.0382
     11 C         139.0717  142.8414  159.6863 C.ar    1  UNL1        0.0176
     12 C         139.3098  143.4834  161.0209 C.ar    1  UNL1        0.0480
     13 C         140.0812  144.7668  161.1088 C.ar    1  UNL1        0.0176
     14 C         140.6144  145.4082  159.8621 C.ar    1  UNL1        0.0382
     15 C         140.0530  146.3628  156.5036 C.3     1  UNL1        0.2525
     16 O         140.9095  145.4077  157.2808 O.3     1  UNL1       -0.4714
     17 C         139.6976  137.6550  163.3276 C.3     1  UNL1        0.0731
     18 C         141.0874  137.2844  163.7531 C.3     1  UNL1        0.0294
     19 C         142.2709  137.9133  163.0793 C.3     1  UNL1        0.0666
     20 S         143.0884  138.9407  163.8046 S.3     1  UNL1       -0.0756
     21 C         143.0793  138.9846  165.3040 C.ar    1  UNL1        0.1933
     22 N         143.7562  138.0073  166.2187 N.ar    1  UNL1       -0.1221
     23 N         143.4869  138.4321  167.6319 N.ar    1  UNL1       -0.1266
     24 C         142.6436  139.6719  167.5905 C.ar    1  UNL1        0.1862
     25 N         142.3917  140.0133  166.1518 N.ar    1  UNL1       -0.2872
     26 C         141.5924  141.1789  165.6492 C.3     1  UNL1        0.1340
     27 C         142.1405  140.4361  168.7792 C.ar    1  UNL1        0.1362
     28 C         142.6810  141.8035  169.0752 C.ar    1  UNL1        0.1211
     29 N         142.1778  142.5677  170.2640 N.ar    1  UNL1       -0.2390
     30 C         141.1341  141.9643  171.1565 C.ar    1  UNL1        0.1195
     31 C         140.5936  140.5968  170.8605 C.ar    1  UNL1        0.1196
     32 N         141.0967  139.8326  169.6718 N.ar    1  UNL1       -0.2375
@<TRIPOS>BOND
     1    15    16    1
     2    16     9    1
     3     9    10   ar
     4    10    11   ar
     5    11    12   ar
     6    12     1    1
     7     1     2    1
     8     2     3    1
     9     3     4    1
    10     4     5    1
    11     5     6    1
    12     6    17    1
    13    17    18    1
    14    18    19    1
    15    19    20    1
    16    20    21    1
    17    21    22   ar
    18    22    23   ar
    19    23    24   ar
    20    24    27    1
    21    27    28   ar
    22    28    29   ar
    23    29    30   ar
    24    30    31   ar
    25    31    32   ar
    26    24    25   ar
    27    25    26    1
    28     6     7    1
    29     7     8    1
    30    12    13   ar
    31    13    14   ar
    32    14     9   ar
    33     8     1    1
    34     8     4    1
    35    25    21   ar
    36    32    27   ar
@<TRIPOS>MOLECULE
*****
 32 36 0 0 0
SMALL
GASTEIGER

@<TRIPOS>ATOM
      1 N         141.7221  139.5589  166.8362 N.pl3   1  UNL1       -0.3077
      2 C         143.0757  138.9135  166.8711 C.3     1  UNL1        0.0909
      3 C         143.1708  137.9728  165.7066 C.3     1  UNL1        0.0245
      4 C         141.8760  138.0369  164.9520 C.3     1  UNL1        0.0372
      5 C         141.1345  137.4951  163.7660 C.3     1  UNL1        0.0738
      6 N         139.7810  138.1406  163.7311 N.3     1  UNL1       -0.2712
      7 C         139.6858  139.0813  164.8956 C.3     1  UNL1        0.0921
      8 C         140.9806  139.0172  165.6502 C.3     1  UNL1        0.0901
      9 C         140.1598  142.5887  169.7740 C.ar    1  UNL1        0.1388
     10 C         139.5336  141.2279  169.6955 C.ar    1  UNL1        0.0382
     11 C         140.0544  140.2180  168.7162 C.ar    1  UNL1        0.0176
     12 C         141.2014  140.5689  167.8155 C.ar    1  UNL1        0.0480
     13 C         141.8276  141.9296  167.8940 C.ar    1  UNL1        0.0176
     14 C         141.3068  142.9395  168.8733 C.ar    1  UNL1        0.0382
     15 C         139.8209  145.0636  170.4877 C.3     1  UNL1        0.2525
     16 O         139.6391  143.5986  170.7533 O.3     1  UNL1       -0.4714
     17 C         138.7104  137.8895  162.7109 C.3     1  UNL1        0.0731
     18 C         137.8547  139.0225  162.2272 C.3     1  UNL1        0.0294
     19 C         137.8501  139.3912  160.7732 C.3     1  UNL1        0.0666
     20 S         138.5326  140.6461  160.3155 S.3     1  UNL1       -0.0756
     21 C         139.9442  140.9285  160.7370 C.ar    1  UNL1        0.1933
     22 N         141.1838  140.5151  160.0005 N.ar    1  UNL1       -0.1221
     23 N         142.3697  141.0050  160.7773 N.ar    1  UNL1       -0.1266
     24 C         141.8631  141.7213  161.9939 C.ar    1  UNL1        0.1862
     25 N         140.3641  141.6740  161.9690 N.ar    1  UNL1       -0.2872
     26 C         139.4460  142.2680  162.9959 C.3     1  UNL1        0.1340
     27 C         142.7073  142.3709  163.0501 C.ar    1  UNL1        0.1362
     28 C         143.3634  141.5323  164.1065 C.ar    1  UNL1        0.1211
     29 N         144.2076  142.1819  165.1627 N.ar    1  UNL1       -0.2390
     30 C         144.3956  143.6701  165.1623 C.ar    1  UNL1        0.1195
     31 C         143.7395  144.5087  164.1058 C.ar    1  UNL1        0.1196
     32 N         142.8953  143.8591  163.0496 N.ar    1  UNL1       -0.2375
@<TRIPOS>BOND
     1    15    16    1
     2    16     9    1
     3     9    10   ar
     4    10    11   ar
     5    11    12   ar
     6    12     1    1
     7     1     2    1
     8     2     3    1
     9     3     4    1
    10     4     5    1
    11     5     6    1
    12     6    17    1
    13    17    18    1
    14    18    19    1
    15    19    20    1
    16    20    21    1
    17    21    22   ar
    18    22    23   ar
    19    23    24   ar
    20    24    27    1
    21    27    28   ar
    22    28    29   ar
    23    29    30   ar
    24    30    31   ar
    25    31    32   ar
    26    24    25   ar
    27    25    26    1
    28     6     7    1
    29     7     8    1
    30    12    13   ar
    31    13    14   ar
    32    14     9   ar
    33     8     1    1
    34     8     4    1
    35    25    21   ar
    36    32    27   ar
@<TRIPOS>MOLECULE
*****
 32 36 0 0 0
SMALL
GASTEIGER

@<TRIPOS>ATOM
      1 N         140.7211  144.2782  161.9361 N.pl3   1  UNL1       -0.3077
      2 C         139.9438  144.9703  163.0163 C.3     1  UNL1        0.0909
      3 C         140.6092  144.6749  164.3279 C.3     1  UNL1        0.0245
      4 C         141.7977  143.8004  164.0582 C.3     1  UNL1        0.0372
      5 C         142.9434  143.0773  164.7021 C.3     1  UNL1        0.0738
      6 N         143.7206  142.3854  163.6218 N.3     1  UNL1       -0.2712
      7 C         143.0553  142.6807  162.3103 C.3     1  UNL1        0.0921
      8 C         141.8668  143.5552  162.5800 C.3     1  UNL1        0.0901
      9 C         139.7809  144.3574  157.5361 C.ar    1  UNL1        0.1388
     10 C         140.4361  145.5408  158.1844 C.ar    1  UNL1        0.0382
     11 C         140.7495  145.5143  159.6511 C.ar    1  UNL1        0.0176
     12 C         140.4077  144.3046  160.4694 C.ar    1  UNL1        0.0480
     13 C         139.7525  143.1212  159.8211 C.ar    1  UNL1        0.0176
     14 C         139.4392  143.1476  158.3544 C.ar    1  UNL1        0.0382
     15 C         138.2622  145.1260  155.5734 C.3     1  UNL1        0.2525
     16 O         139.4675  144.3837  156.0694 O.3     1  UNL1       -0.4714
     17 C         144.9477  141.5455  163.8185 C.3     1  UNL1        0.0731
     18 C         144.8152  140.1067  164.2212 C.3     1  UNL1        0.0294
     19 C         143.9102  139.1923  163.4500 C.3     1  UNL1        0.0666
     20 S         142.6730  138.6419  164.0955 S.3     1  UNL1       -0.0756
     21 C         141.7343  139.5594  164.8214 C.ar    1  UNL1        0.1933
     22 N         140.5780  140.2976  164.2148 N.ar    1  UNL1       -0.1221
     23 N         139.9160  141.0942  165.2999 N.ar    1  UNL1       -0.1266
     24 C         140.6633  140.8483  166.5770 C.ar    1  UNL1        0.1862
     25 N         141.7870  139.8997  166.2813 N.ar    1  UNL1       -0.2872
     26 C         142.7877  139.3823  167.2717 C.3     1  UNL1        0.1340
     27 C         140.3430  141.4460  167.9150 C.ar    1  UNL1        0.1362
     28 C         139.6250  140.6299  168.9485 C.ar    1  UNL1        0.1211
     29 N         139.3047  141.2277  170.2865 N.ar    1  UNL1       -0.2390
     30 C         139.7026  142.6415  170.5909 C.ar    1  UNL1        0.1195
     31 C         140.4207  143.4577  169.5574 C.ar    1  UNL1        0.1196
     32 N         140.7410  142.8600  168.2194 N.ar    1  UNL1       -0.2375
@<TRIPOS>BOND
     1    15    16    1
     2    16     9    1
     3     9    10   ar
     4    10    11   ar
     5    11    12   ar
     6    12     1    1
     7     1     2    1
     8     2     3    1
     9     3     4    1
    10     4     5    1
    11     5     6    1
    12     6    17    1
    13    17    18    1
    14    18    19    1
    15    19    20    1
    16    20    21    1
    17    21    22   ar
    18    22    23   ar
    19    23    24   ar
    20    24    27    1
    21    27    28   ar
    22    28    29   ar
    23    29    30   ar
    24    30    31   ar
    25    31    32   ar
    26    24    25   ar
    27    25    26    1
    28     6     7    1
    29     7     8    1
    30    12    13   ar
    31    13    14   ar
    32    14     9   ar
    33     8     1    1
    34     8     4    1
    35    25    21   ar
    36    32    27   ar
@<TRIPOS>MOLECULE
*****
 32 36 0 0 0
SMALL
GASTEIGER

@<TRIPOS>ATOM
      1 N         143.8549  142.1129  163.1596 N.pl3   1  UNL1       -0.3077
      2 C         144.5653  143.4087  163.4169 C.3     1  UNL1        0.0909
      3 C         144.3344  143.7873  164.8498 C.3     1  UNL1        0.0245
      4 C         143.4814  142.7254  165.4782 C.3     1  UNL1        0.0372
      5 C         142.8115  142.3031  166.7521 C.3     1  UNL1        0.0738
      6 N         142.1012  141.0073  166.4948 N.3     1  UNL1       -0.2712
      7 C         142.3320  140.6287  165.0619 C.3     1  UNL1        0.0921
      8 C         143.1850  141.6906  164.4335 C.3     1  UNL1        0.0901
      9 C         143.7516  139.8836  159.2519 C.ar    1  UNL1        0.1388
     10 C         143.4678  141.3562  159.2830 C.ar    1  UNL1        0.0382
     11 C         143.5023  142.0992  160.5856 C.ar    1  UNL1        0.0176
     12 C         143.8205  141.3698  161.8571 C.ar    1  UNL1        0.0480
     13 C         144.1043  139.8972  161.8260 C.ar    1  UNL1        0.0176
     14 C         144.0698  139.1542  160.5234 C.ar    1  UNL1        0.0382
     15 C         142.4286  138.5533  157.4549 C.3     1  UNL1        0.2525
     16 O         143.7172  139.1405  157.9494 O.3     1  UNL1       -0.4714
     17 C         141.3005  140.2271  167.4949 C.3     1  UNL1        0.0731
     18 C         139.8050  140.3412  167.5115 C.3     1  UNL1        0.0294
     19 C         138.9620  139.2344  166.9507 C.3     1  UNL1        0.0666
     20 S         138.1351  139.4705  165.7217 S.3     1  UNL1       -0.0756
     21 C         138.7846  139.9703  164.4653 C.ar    1  UNL1        0.1933
     22 N         139.4682  139.1267  163.4304 N.ar    1  UNL1       -0.1221
     23 N         139.9707  140.0365  162.3488 N.ar    1  UNL1       -0.1266
     24 C         139.5976  141.4424  162.7153 C.ar    1  UNL1        0.1862
     25 N         138.8646  141.4015  164.0234 N.ar    1  UNL1       -0.2872
     26 C         138.3090  142.5841  164.7601 C.3     1  UNL1        0.1340
     27 C         139.9037  142.6732  161.9143 C.ar    1  UNL1        0.1362
     28 C         139.2448  142.8852  160.5837 C.ar    1  UNL1        0.1211
     29 N         139.5510  144.1160  159.7828 N.ar    1  UNL1       -0.2390
     30 C         140.5161  145.1347  160.3125 C.ar    1  UNL1        0.1195
     31 C         141.1751  144.9227  161.6433 C.ar    1  UNL1        0.1196
     32 N         140.8689  143.6919  162.4442 N.ar    1  UNL1       -0.2375
@<TRIPOS>BOND
     1    15    16    1
     2    16     9    1
     3     9    10   ar
     4    10    11   ar
     5    11    12   ar
     6    12     1    1
     7     1     2    1
     8     2     3    1
     9     3     4    1
    10     4     5    1
    11     5     6    1
    12     6    17    1
    13    17    18    1
    14    18    19    1
    15    19    20    1
    16    20    21    1
    17    21    22   ar
    18    22    23   ar
    19    23    24   ar
    20    24    27    1
    21    27    28   ar
    22    28    29   ar
    23    29    30   ar
    24    30    31   ar
    25    31    32   ar
    26    24    25   ar
    27    25    26    1
    28     6     7    1
    29     7     8    1
    30    12    13   ar
    31    13    14   ar
    32    14     9   ar
    33     8     1    1
    34     8     4    1
    35    25    21   ar
    36    32    27   ar
