@<TRIPOS>MOLECULE
*****
 32 36 0 0 0
SMALL
GASTEIGER

@<TRIPOS>ATOM
      1 C         140.2384  138.0921  163.8726 C.2     1  UNL1        0.2257
      2 O         141.0457  136.8333  163.7565 O.2     1  UNL1       -0.2749
      3 N         139.7281  138.7725  162.6370 N.am    1  UNL1       -0.2760
      4 C         140.0250  138.1940  161.2853 C.3     1  UNL1        0.1149
      5 C         139.5147  138.8743  160.0497 C.3     1  UNL1        0.1141
      6 N         138.7074  140.1332  160.1658 N.pl3   1  UNL1       -0.2846
      7 C         138.4104  140.7117  161.5175 C.3     1  UNL1        0.1141
      8 C         138.9208  140.0313  162.7531 C.3     1  UNL1        0.1149
      9 C         138.1970  140.8135  158.9302 C.ar    1  UNL1        0.1645
     10 N         137.1638  140.2709  157.9878 N.ar    1  UNL1       -0.2225
     11 C         136.9585  141.2779  156.8953 C.ar    1  UNL1        0.1070
     12 C         136.0634  141.2846  155.6917 C.ar    1  UNL1        0.0228
     13 C         136.0746  142.4563  154.7552 C.ar    1  UNL1        0.0223
     14 C         136.9809  143.6213  155.0223 C.ar    1  UNL1        0.0995
     15 N         137.8760  143.6146  156.2259 N.ar    1  UNL1       -0.2357
     16 C         137.8648  142.4430  157.1624 C.ar    1  UNL1        0.1308
     17 S         138.6302  142.1559  158.4201 S.2     1  UNL1       -0.0325
     18 C         141.0212  139.3724  165.9934 C.3     1  UNL1        0.0851
     19 C         140.7242  139.9509  167.3452 C.3     1  UNL1        0.0096
     20 C         139.3475  139.8276  167.9277 C.3     1  UNL1        0.0005
     21 C         138.2677  139.1259  167.1586 C.3     1  UNL1        0.0005
     22 C         138.5647  138.5474  165.8069 C.3     1  UNL1        0.0096
     23 C         139.9415  138.6706  165.2243 C.3     1  UNL1        0.0853
     24 N         142.6689  140.5034  164.3333 N.am    1  UNL1       -0.2959
     25 C         142.3979  139.4957  165.4109 C.2     1  UNL1        0.2231
     26 O         143.5037  138.6113  165.9059 O.2     1  UNL1       -0.2751
     27 H         141.9432  141.0839  164.0084 H       1  UNL1        0.1502
     28 C         144.0456  140.6267  163.7508 C.3     1  UNL1        0.1364
     29 C         145.4330  141.1436  163.5094 C.3     1  UNL1        0.0353
     30 C         144.5541  141.8027  164.5307 C.3     1  UNL1        0.0353
     31 N         143.9849  138.3602  161.7863 N.1     1  UNL1       -0.1943
     32 C         144.0153  139.4934  162.7686 C.1     1  UNL1        0.0896
@<TRIPOS>BOND
     1    31    32    3
     2    32    28    1
     3    28    24    1
     4    24    25   am
     5    25    26    2
     6    18    25    1
     7    18    19    1
     8    19    20    1
     9    20    21    1
    10    21    22    1
    11    22    23    1
    12    23     1    1
    13     1     2    2
    14     1     3   am
    15     3     4    1
    16     4     5    1
    17     5     6    1
    18     6     9    1
    19     9    10   ar
    20    10    11   ar
    21    11    12   ar
    22    12    13   ar
    23    13    14   ar
    24    14    15   ar
    25    15    16   ar
    26    16    17   ar
    27     6     7    1
    28     7     8    1
    29    28    29    1
    30    29    30    1
    31    30    28    1
    32    23    18    1
    33     8     3    1
    34    17     9   ar
    35    16    11   ar
    36    24    27    1
@<TRIPOS>MOLECULE
*****
 32 36 0 0 0
SMALL
GASTEIGER

@<TRIPOS>ATOM
      1 C         138.0040  140.8792  163.4619 C.2     1  UNL1        0.2257
      2 O         136.8753  141.8453  163.2554 O.2     1  UNL1       -0.2749
      3 N         138.6753  140.2463  162.2792 N.am    1  UNL1       -0.2760
      4 C         138.2180  140.5796  160.8900 C.3     1  UNL1        0.1149
      5 C         138.8893  139.9467  159.7073 C.3     1  UNL1        0.1141
      6 N         140.0180  138.9806  159.9138 N.pl3   1  UNL1       -0.2846
      7 C         140.4754  138.6474  161.3029 C.3     1  UNL1        0.1141
      8 C         139.8040  139.2803  162.4856 C.3     1  UNL1        0.1149
      9 C         140.6894  138.3478  158.7311 C.ar    1  UNL1        0.1645
     10 N         139.9989  137.7322  157.5503 N.ar    1  UNL1       -0.2225
     11 C         141.0519  137.2233  156.6109 C.ar    1  UNL1        0.1070
     12 C         140.9626  136.5247  155.2866 C.ar    1  UNL1        0.0228
     13 C         142.2146  136.1272  154.5625 C.ar    1  UNL1        0.0223
     14 C         143.5559  136.4283  155.1628 C.ar    1  UNL1        0.0995
     15 N         143.6452  137.1269  156.4871 N.ar    1  UNL1       -0.2357
     16 C         142.3931  137.5244  157.2112 C.ar    1  UNL1        0.1308
     17 S         142.1691  138.2194  158.5215 S.2     1  UNL1       -0.0325
     18 C         139.4040  141.4643  165.5708 C.3     1  UNL1        0.0851
     19 C         139.8614  141.1310  166.9600 C.3     1  UNL1        0.0096
     20 C         139.3760  139.8795  167.6294 C.3     1  UNL1        0.0005
     21 C         138.4334  138.9612  166.9096 C.3     1  UNL1        0.0005
     22 C         137.9760  139.2944  165.5205 C.3     1  UNL1        0.0096
     23 C         138.4613  140.5460  164.8510 C.3     1  UNL1        0.0853
     24 N         140.9556  142.6385  163.8492 N.am    1  UNL1       -0.2959
     25 C         139.8893  142.7158  164.9014 C.2     1  UNL1        0.2231
     26 O         139.3084  144.0447  165.2842 O.2     1  UNL1       -0.2751
     27 H         141.3369  141.7663  163.5980 H       1  UNL1        0.1502
     28 C         141.4410  143.8900  163.1798 C.3     1  UNL1        0.1364
     29 C         142.2769  145.1022  162.8937 C.3     1  UNL1        0.0353
     30 C         142.6189  144.2113  164.0510 C.3     1  UNL1        0.0353
     31 N         139.4220  144.1166  160.9725 N.1     1  UNL1       -0.1943
     32 C         140.4315  144.0033  162.0761 C.1     1  UNL1        0.0896
@<TRIPOS>BOND
     1    31    32    3
     2    32    28    1
     3    28    24    1
     4    24    25   am
     5    25    26    2
     6    18    25    1
     7    18    19    1
     8    19    20    1
     9    20    21    1
    10    21    22    1
    11    22    23    1
    12    23     1    1
    13     1     2    2
    14     1     3   am
    15     3     4    1
    16     4     5    1
    17     5     6    1
    18     6     9    1
    19     9    10   ar
    20    10    11   ar
    21    11    12   ar
    22    12    13   ar
    23    13    14   ar
    24    14    15   ar
    25    15    16   ar
    26    16    17   ar
    27     6     7    1
    28     7     8    1
    29    28    29    1
    30    29    30    1
    31    30    28    1
    32    23    18    1
    33     8     3    1
    34    17     9   ar
    35    16    11   ar
    36    24    27    1
@<TRIPOS>MOLECULE
*****
 32 36 0 0 0
SMALL
GASTEIGER

@<TRIPOS>ATOM
      1 C         140.0360  138.0315  163.3048 C.2     1  UNL1        0.2257
      2 O         140.9903  136.8827  163.1655 O.2     1  UNL1       -0.2749
      3 N         139.5335  138.7415  162.0828 N.am    1  UNL1       -0.2760
      4 C         139.9852  138.3027  160.7215 C.3     1  UNL1        0.1149
      5 C         139.4826  139.0126  159.4994 C.3     1  UNL1        0.1141
      6 N         138.5283  140.1615  159.6387 N.pl3   1  UNL1       -0.2846
      7 C         138.0766  140.6003  161.0001 C.3     1  UNL1        0.1141
      8 C         138.5792  139.8903  162.2221 C.3     1  UNL1        0.1149
      9 C         138.0258  140.8714  158.4167 C.ar    1  UNL1        0.1645
     10 N         137.0728  140.3129  157.4019 N.ar    1  UNL1       -0.2225
     11 C         136.8460  141.3609  156.3529 C.ar    1  UNL1        0.1070
     12 C         136.0044  141.3726  155.1114 C.ar    1  UNL1        0.0228
     13 C         135.9756  142.5906  154.2363 C.ar    1  UNL1        0.0223
     14 C         136.7884  143.7968  154.6028 C.ar    1  UNL1        0.0995
     15 N         137.6300  143.7851  155.8444 N.ar    1  UNL1       -0.2357
     16 C         137.6588  142.5671  156.7194 C.ar    1  UNL1        0.1308
     17 S         138.3880  142.2646  157.9949 S.2     1  UNL1       -0.0325
     18 C         140.3126  139.5707  165.3795 C.3     1  UNL1        0.0851
     19 C         139.8608  140.0095  166.7410 C.3     1  UNL1        0.0096
     20 C         138.6808  139.3481  167.3889 C.3     1  UNL1        0.0005
     21 C         137.9524  138.2478  166.6755 C.3     1  UNL1        0.0005
     22 C         138.4042  137.8090  165.3142 C.3     1  UNL1        0.0096
     23 C         139.5843  138.4704  164.6662 C.3     1  UNL1        0.0853
     24 N         142.8846  139.8414  165.1315 N.am    1  UNL1       -0.2959
     25 C         141.4927  140.2321  164.7316 C.2     1  UNL1        0.2231
     26 O         141.2809  141.2842  163.6837 O.2     1  UNL1       -0.2751
     27 H         143.0236  139.1509  165.8193 H       1  UNL1        0.1502
     28 C         144.0647  140.5029  164.4836 C.3     1  UNL1        0.1364
     29 C         145.2568  140.7023  163.5952 C.3     1  UNL1        0.0353
     30 C         144.5089  139.4024  163.5663 C.3     1  UNL1        0.0353
     31 N         143.9959  143.1633  165.8682 N.1     1  UNL1       -0.1943
     32 C         144.0303  141.8331  165.1759 C.1     1  UNL1        0.0896
@<TRIPOS>BOND
     1    31    32    3
     2    32    28    1
     3    28    24    1
     4    24    25   am
     5    25    26    2
     6    18    25    1
     7    18    19    1
     8    19    20    1
     9    20    21    1
    10    21    22    1
    11    22    23    1
    12    23     1    1
    13     1     2    2
    14     1     3   am
    15     3     4    1
    16     4     5    1
    17     5     6    1
    18     6     9    1
    19     9    10   ar
    20    10    11   ar
    21    11    12   ar
    22    12    13   ar
    23    13    14   ar
    24    14    15   ar
    25    15    16   ar
    26    16    17   ar
    27     6     7    1
    28     7     8    1
    29    28    29    1
    30    29    30    1
    31    30    28    1
    32    23    18    1
    33     8     3    1
    34    17     9   ar
    35    16    11   ar
    36    24    27    1
@<TRIPOS>MOLECULE
*****
 32 36 0 0 0
SMALL
GASTEIGER

@<TRIPOS>ATOM
      1 C         140.8222  142.1863  163.0217 C.2     1  UNL1        0.2257
      2 O         139.4448  142.7008  163.3182 O.2     1  UNL1       -0.2749
      3 N         141.0403  141.2446  161.8747 N.am    1  UNL1       -0.2760
      4 C         139.8809  140.8174  161.0242 C.3     1  UNL1        0.1149
      5 C         140.0990  139.8757  159.8772 C.3     1  UNL1        0.1141
      6 N         141.4764  139.3612  159.5807 N.pl3   1  UNL1       -0.2846
      7 C         142.6357  139.7884  160.4311 C.3     1  UNL1        0.1141
      8 C         142.4177  140.7301  161.5781 C.3     1  UNL1        0.1149
      9 C         141.6944  138.4194  158.4336 C.ar    1  UNL1        0.1645
     10 N         143.0068  137.8217  158.0209 N.ar    1  UNL1       -0.2225
     11 C         142.7618  136.9429  156.8301 C.ar    1  UNL1        0.1070
     12 C         143.6825  136.1001  155.9984 C.ar    1  UNL1        0.0228
     13 C         143.1395  135.3119  154.8435 C.ar    1  UNL1        0.0223
     14 C         141.6757  135.3666  154.5204 C.ar    1  UNL1        0.0995
     15 N         140.7550  136.2094  155.3521 N.ar    1  UNL1       -0.2357
     16 C         141.2981  136.9976  156.5070 C.ar    1  UNL1        0.1308
     17 S         140.6384  137.9101  157.4980 S.2     1  UNL1       -0.0325
     18 C         142.2486  141.9240  165.1772 C.3     1  UNL1        0.0851
     19 C         143.4081  142.3513  166.0277 C.3     1  UNL1        0.0096
     20 C         144.3004  143.4680  165.5731 C.3     1  UNL1        0.0005
     21 C         144.0333  144.1575  164.2680 C.3     1  UNL1        0.0005
     22 C         142.8740  143.7303  163.4175 C.3     1  UNL1        0.0096
     23 C         141.9816  142.6135  163.8721 C.3     1  UNL1        0.0853
     24 N         139.9865  141.1105  166.1625 N.am    1  UNL1       -0.2959
     25 C         141.3563  140.8073  165.6319 C.2     1  UNL1        0.2231
     26 O         141.8339  139.3875  165.5559 O.2     1  UNL1       -0.2751
     27 H         139.6730  142.0425  166.2124 H       1  UNL1        0.1502
     28 C         139.0941  139.9939  166.6171 C.3     1  UNL1        0.1364
     29 C         138.0623  138.9061  166.5707 C.3     1  UNL1        0.0353
     30 C         138.3827  139.6893  165.3322 C.3     1  UNL1        0.0353
     31 N         139.8973  139.8273  169.5028 N.1     1  UNL1       -0.1943
     32 C         139.4957  139.9106  168.0600 C.1     1  UNL1        0.0896
@<TRIPOS>BOND
     1    31    32    3
     2    32    28    1
     3    28    24    1
     4    24    25   am
     5    25    26    2
     6    18    25    1
     7    18    19    1
     8    19    20    1
     9    20    21    1
    10    21    22    1
    11    22    23    1
    12    23     1    1
    13     1     2    2
    14     1     3   am
    15     3     4    1
    16     4     5    1
    17     5     6    1
    18     6     9    1
    19     9    10   ar
    20    10    11   ar
    21    11    12   ar
    22    12    13   ar
    23    13    14   ar
    24    14    15   ar
    25    15    16   ar
    26    16    17   ar
    27     6     7    1
    28     7     8    1
    29    28    29    1
    30    29    30    1
    31    30    28    1
    32    23    18    1
    33     8     3    1
    34    17     9   ar
    35    16    11   ar
    36    24    27    1
@<TRIPOS>MOLECULE
*****
 32 36 0 0 0
SMALL
GASTEIGER

@<TRIPOS>ATOM
      1 C         138.4836  139.5091  161.4973 C.2     1  UNL1        0.2257
      2 O         137.1401  139.5025  160.8304 O.2     1  UNL1       -0.2749
      3 N         139.7112  139.8551  160.7078 N.am    1  UNL1       -0.2760
      4 C         139.5952  140.1946  159.2514 C.3     1  UNL1        0.1149
      5 C         140.8228  140.5407  158.4619 C.3     1  UNL1        0.1141
      6 N         142.1663  140.5472  159.1289 N.pl3   1  UNL1       -0.2846
      7 C         142.2823  140.2077  160.5853 C.3     1  UNL1        0.1141
      8 C         141.0547  139.8616  161.3748 C.3     1  UNL1        0.1149
      9 C         143.3939  140.8933  158.3394 C.ar    1  UNL1        0.1645
     10 N         143.8487  140.2223  157.0773 N.ar    1  UNL1       -0.2225
     11 C         145.1181  140.8854  156.6313 C.ar    1  UNL1        0.1070
     12 C         146.0164  140.6447  155.4543 C.ar    1  UNL1        0.0228
     13 C         147.2443  141.4848  155.2639 C.ar    1  UNL1        0.0223
     14 C         147.5740  142.5656  156.2503 C.ar    1  UNL1        0.0995
     15 N         146.6758  142.8063  157.4272 N.ar    1  UNL1       -0.2357
     16 C         145.4479  141.9662  157.6177 C.ar    1  UNL1        0.1308
     17 S         144.3822  141.9711  158.6734 S.2     1  UNL1       -0.0325
     18 C         138.5193  140.2552  163.9857 C.3     1  UNL1        0.0851
     19 C         138.6352  139.9156  165.4422 C.3     1  UNL1        0.0096
     20 C         138.8314  138.4904  165.8667 C.3     1  UNL1        0.0005
     21 C         138.9117  137.4047  164.8348 C.3     1  UNL1        0.0005
     22 C         138.7958  137.7443  163.3783 C.3     1  UNL1        0.0096
     23 C         138.5995  139.1695  162.9538 C.3     1  UNL1        0.0853
     24 N         139.4653  142.6497  163.6371 N.am    1  UNL1       -0.2959
     25 C         138.3230  141.6804  163.5612 C.2     1  UNL1        0.2231
     26 O         136.9845  142.1364  163.0607 O.2     1  UNL1       -0.2751
     27 H         140.3438  142.3504  163.9656 H       1  UNL1        0.1502
     28 C         139.2691  144.0749  163.2126 C.3     1  UNL1        0.1364
     29 C         139.2232  145.2908  162.3354 C.3     1  UNL1        0.0353
     30 C         139.6337  143.9670  161.7617 C.3     1  UNL1        0.0353
     31 N         138.4035  145.2805  165.8198 N.1     1  UNL1       -0.1943
     32 C         138.8363  144.6777  164.5163 C.1     1  UNL1        0.0896
@<TRIPOS>BOND
     1    31    32    3
     2    32    28    1
     3    28    24    1
     4    24    25   am
     5    25    26    2
     6    18    25    1
     7    18    19    1
     8    19    20    1
     9    20    21    1
    10    21    22    1
    11    22    23    1
    12    23     1    1
    13     1     2    2
    14     1     3   am
    15     3     4    1
    16     4     5    1
    17     5     6    1
    18     6     9    1
    19     9    10   ar
    20    10    11   ar
    21    11    12   ar
    22    12    13   ar
    23    13    14   ar
    24    14    15   ar
    25    15    16   ar
    26    16    17   ar
    27     6     7    1
    28     7     8    1
    29    28    29    1
    30    29    30    1
    31    30    28    1
    32    23    18    1
    33     8     3    1
    34    17     9   ar
    35    16    11   ar
    36    24    27    1
@<TRIPOS>MOLECULE
*****
 32 36 0 0 0
SMALL
GASTEIGER

@<TRIPOS>ATOM
      1 C         138.7342  140.3881  164.2468 C.2     1  UNL1        0.2257
      2 O         138.1452  139.4140  165.2236 O.2     1  UNL1       -0.2749
      3 N         139.2421  139.9058  162.9204 N.am    1  UNL1       -0.2760
      4 C         139.1610  138.4494  162.5708 C.3     1  UNL1        0.1149
      5 C         139.6689  137.9671  161.2443 C.3     1  UNL1        0.1141
      6 N         140.2579  138.9411  160.2675 N.pl3   1  UNL1       -0.2846
      7 C         140.3390  140.3975  160.6172 C.3     1  UNL1        0.1141
      8 C         139.8311  140.8799  161.9436 C.3     1  UNL1        0.1149
      9 C         140.7658  138.4588  158.9411 C.ar    1  UNL1        0.1645
     10 N         142.1498  137.9549  158.6572 N.ar    1  UNL1       -0.2225
     11 C         142.2182  137.5804  157.2063 C.ar    1  UNL1        0.1070
     12 C         143.3289  137.0264  156.3641 C.ar    1  UNL1        0.0228
     13 C         143.0979  136.7450  154.9090 C.ar    1  UNL1        0.0223
     14 C         141.7562  137.0175  154.2961 C.ar    1  UNL1        0.0995
     15 N         140.6455  137.5714  155.1384 N.ar    1  UNL1       -0.2357
     16 C         140.8765  137.8529  156.5935 C.ar    1  UNL1        0.1308
     17 S         139.9789  138.3958  157.6657 S.2     1  UNL1       -0.0325
     18 C         140.0694  142.4018  165.2019 C.3     1  UNL1        0.0851
     19 C         140.1505  143.8582  165.5515 C.3     1  UNL1        0.0096
     20 C         138.9775  144.7574  165.2957 C.3     1  UNL1        0.0005
     21 C         137.7233  144.2001  164.6902 C.3     1  UNL1        0.0005
     22 C         137.6422  142.7437  164.3406 C.3     1  UNL1        0.0096
     23 C         138.8153  141.8445  164.5964 C.3     1  UNL1        0.0853
     24 N         141.0525  140.2165  166.2058 N.am    1  UNL1       -0.2959
     25 C         141.2425  141.5026  165.4577 C.2     1  UNL1        0.2231
     26 O         142.6055  141.8897  164.9654 O.2     1  UNL1       -0.2751
     27 H         140.1579  139.9624  166.5289 H       1  UNL1        0.1502
     28 C         142.2255  139.3173  166.4616 C.3     1  UNL1        0.1364
     29 C         143.2686  138.2628  166.2375 C.3     1  UNL1        0.0353
     30 C         142.2585  138.5578  165.1686 C.3     1  UNL1        0.0353
     31 N         142.9744  140.2118  169.2255 N.1     1  UNL1       -0.1943
     32 C         142.6000  139.7646  167.8436 C.1     1  UNL1        0.0896
@<TRIPOS>BOND
     1    31    32    3
     2    32    28    1
     3    28    24    1
     4    24    25   am
     5    25    26    2
     6    18    25    1
     7    18    19    1
     8    19    20    1
     9    20    21    1
    10    21    22    1
    11    22    23    1
    12    23     1    1
    13     1     2    2
    14     1     3   am
    15     3     4    1
    16     4     5    1
    17     5     6    1
    18     6     9    1
    19     9    10   ar
    20    10    11   ar
    21    11    12   ar
    22    12    13   ar
    23    13    14   ar
    24    14    15   ar
    25    15    16   ar
    26    16    17   ar
    27     6     7    1
    28     7     8    1
    29    28    29    1
    30    29    30    1
    31    30    28    1
    32    23    18    1
    33     8     3    1
    34    17     9   ar
    35    16    11   ar
    36    24    27    1
@<TRIPOS>MOLECULE
*****
 32 36 0 0 0
SMALL
GASTEIGER

@<TRIPOS>ATOM
      1 C         141.4830  139.3071  165.4148 C.2     1  UNL1        0.2257
      2 O         142.7391  138.8807  166.1149 O.2     1  UNL1       -0.2749
      3 N         141.5645  140.1209  164.1574 N.am    1  UNL1       -0.2760
      4 C         142.9021  140.5082  163.6000 C.3     1  UNL1        0.1149
      5 C         142.9836  141.3220  162.3426 C.3     1  UNL1        0.1141
      6 N         141.7274  141.7484  161.6425 N.pl3   1  UNL1       -0.2846
      7 C         140.3898  141.3610  162.1998 C.3     1  UNL1        0.1141
      8 C         140.3083  140.5473  163.4573 C.3     1  UNL1        0.1149
      9 C         141.8089  142.5621  160.3850 C.ar    1  UNL1        0.1645
     10 N         141.8182  142.0233  158.9852 N.ar    1  UNL1       -0.2225
     11 C         141.9105  143.1857  158.0416 C.ar    1  UNL1        0.1070
     12 C         141.9572  143.2618  156.5443 C.ar    1  UNL1        0.0228
     13 C         142.0516  144.5952  155.8637 C.ar    1  UNL1        0.0223
     14 C         142.0993  145.8524  156.6805 C.ar    1  UNL1        0.0995
     15 N         142.0525  145.7763  158.1778 N.ar    1  UNL1       -0.2357
     16 C         141.9581  144.4430  158.8584 C.ar    1  UNL1        0.1308
     17 S         141.8954  144.0576  160.3066 S.2     1  UNL1       -0.0325
     18 C         139.5850  139.6525  167.1550 C.3     1  UNL1        0.0851
     19 C         138.2473  139.2651  167.7123 C.3     1  UNL1        0.0096
     20 C         137.4700  138.1451  167.0868 C.3     1  UNL1        0.0005
     21 C         138.0304  137.4124  165.9040 C.3     1  UNL1        0.0005
     22 C         139.3680  137.7997  165.3467 C.3     1  UNL1        0.0096
     23 C         140.1454  138.9198  165.9722 C.3     1  UNL1        0.0853
     24 N         141.3979  140.4755  168.8241 N.am    1  UNL1       -0.2959
     25 C         140.3622  140.7726  167.7805 C.2     1  UNL1        0.2231
     26 O         140.1038  142.1897  167.3624 O.2     1  UNL1       -0.2751
     27 H         141.5675  139.5454  169.0986 H       1  UNL1        0.1502
     28 C         142.1751  141.5956  169.4496 C.3     1  UNL1        0.1364
     29 C         143.2243  142.6515  169.6354 C.3     1  UNL1        0.0353
     30 C         143.2277  141.7998  168.4007 C.3     1  UNL1        0.0353
     31 N         140.6097  141.9652  171.9820 N.1     1  UNL1       -0.1943
     32 C         141.3925  141.7804  170.7158 C.1     1  UNL1        0.0896
@<TRIPOS>BOND
     1    31    32    3
     2    32    28    1
     3    28    24    1
     4    24    25   am
     5    25    26    2
     6    18    25    1
     7    18    19    1
     8    19    20    1
     9    20    21    1
    10    21    22    1
    11    22    23    1
    12    23     1    1
    13     1     2    2
    14     1     3   am
    15     3     4    1
    16     4     5    1
    17     5     6    1
    18     6     9    1
    19     9    10   ar
    20    10    11   ar
    21    11    12   ar
    22    12    13   ar
    23    13    14   ar
    24    14    15   ar
    25    15    16   ar
    26    16    17   ar
    27     6     7    1
    28     7     8    1
    29    28    29    1
    30    29    30    1
    31    30    28    1
    32    23    18    1
    33     8     3    1
    34    17     9   ar
    35    16    11   ar
    36    24    27    1
@<TRIPOS>MOLECULE
*****
 32 36 0 0 0
SMALL
GASTEIGER

@<TRIPOS>ATOM
      1 C         143.2205  141.5236  163.1812 C.2     1  UNL1        0.2257
      2 O         144.4130  141.2324  164.0432 O.2     1  UNL1       -0.2749
      3 N         142.9810  140.7215  161.9364 N.am    1  UNL1       -0.2760
      4 C         143.9340  139.6283  161.5537 C.3     1  UNL1        0.1149
      5 C         143.6945  138.8262  160.3090 C.3     1  UNL1        0.1141
      6 N         142.5020  139.1174  159.4470 N.pl3   1  UNL1       -0.2846
      7 C         141.5490  140.2107  159.8297 C.3     1  UNL1        0.1141
      8 C         141.7885  141.0127  161.0744 C.3     1  UNL1        0.1149
      9 C         142.2625  138.3154  158.2023 C.ar    1  UNL1        0.1645
     10 N         143.3196  137.7243  157.3172 N.ar    1  UNL1       -0.2225
     11 C         142.6343  137.0072  156.1920 C.ar    1  UNL1        0.1070
     12 C         143.1672  136.2387  155.0192 C.ar    1  UNL1        0.0228
     13 C         142.2195  135.6180  154.0361 C.ar    1  UNL1        0.0223
     14 C         140.7389  135.7658  154.2257 C.ar    1  UNL1        0.0995
     15 N         140.2060  136.5343  155.3985 N.ar    1  UNL1       -0.2357
     16 C         141.1537  137.1550  156.3816 C.ar    1  UNL1        0.1308
     17 S         140.9239  137.9635  157.6240 S.2     1  UNL1       -0.0325
     18 C         141.0308  142.2932  164.3486 C.3     1  UNL1        0.0851
     19 C         140.0778  143.3865  164.7314 C.3     1  UNL1        0.0096
     20 C         140.3615  144.8035  164.3293 C.3     1  UNL1        0.0005
     21 C         141.5982  145.1272  163.5445 C.3     1  UNL1        0.0005
     22 C         142.5512  144.0339  163.1618 C.3     1  UNL1        0.0096
     23 C         142.2675  142.6169  163.5639 C.3     1  UNL1        0.0853
     24 N         139.6496  140.1099  164.0738 N.am    1  UNL1       -0.2959
     25 C         140.7471  140.8762  164.7507 C.2     1  UNL1        0.2231
     26 O         141.5610  140.2255  165.8296 O.2     1  UNL1       -0.2751
     27 H         139.1154  140.5370  163.3657 H       1  UNL1        0.1502
     28 C         139.3659  138.6930  164.4759 C.3     1  UNL1        0.1364
     29 C         138.7947  137.5294  165.2308 C.3     1  UNL1        0.0353
     30 C         138.4397  138.9306  165.6315 C.3     1  UNL1        0.0353
     31 N         141.0213  137.2335  162.4437 N.1     1  UNL1       -0.1943
     32 C         140.1936  137.9632  163.4598 C.1     1  UNL1        0.0896
@<TRIPOS>BOND
     1    31    32    3
     2    32    28    1
     3    28    24    1
     4    24    25   am
     5    25    26    2
     6    18    25    1
     7    18    19    1
     8    19    20    1
     9    20    21    1
    10    21    22    1
    11    22    23    1
    12    23     1    1
    13     1     2    2
    14     1     3   am
    15     3     4    1
    16     4     5    1
    17     5     6    1
    18     6     9    1
    19     9    10   ar
    20    10    11   ar
    21    11    12   ar
    22    12    13   ar
    23    13    14   ar
    24    14    15   ar
    25    15    16   ar
    26    16    17   ar
    27     6     7    1
    28     7     8    1
    29    28    29    1
    30    29    30    1
    31    30    28    1
    32    23    18    1
    33     8     3    1
    34    17     9   ar
    35    16    11   ar
    36    24    27    1
@<TRIPOS>MOLECULE
*****
 32 36 0 0 0
SMALL
GASTEIGER

@<TRIPOS>ATOM
      1 C         138.6667  140.3778  164.0067 C.2     1  UNL1        0.2257
      2 O         138.2011  139.3617  165.0071 O.2     1  UNL1       -0.2749
      3 N         138.9932  139.9553  162.6050 N.am    1  UNL1       -0.2760
      4 C         138.8543  138.5167  162.2036 C.3     1  UNL1        0.1149
      5 C         139.1808  138.0942  160.8019 C.3     1  UNL1        0.1141
      6 N         139.6464  139.1103  159.8015 N.pl3   1  UNL1       -0.2846
      7 C         139.7854  140.5489  160.2029 C.3     1  UNL1        0.1141
      8 C         139.4588  140.9714  161.6046 C.3     1  UNL1        0.1149
      9 C         139.9730  138.6878  158.3998 C.ar    1  UNL1        0.1645
     10 N         139.0200  138.6631  157.2417 N.ar    1  UNL1       -0.2225
     11 C         139.7679  138.1758  156.0362 C.ar    1  UNL1        0.1070
     12 C         139.3431  137.9482  154.6158 C.ar    1  UNL1        0.0228
     13 C         140.3335  137.4440  153.6084 C.ar    1  UNL1        0.0223
     14 C         141.7488  137.1676  154.0215 C.ar    1  UNL1        0.0995
     15 N         142.1736  137.3952  155.4419 N.ar    1  UNL1       -0.2357
     16 C         141.1831  137.8994  156.4493 C.ar    1  UNL1        0.1308
     17 S         141.3099  138.2158  157.9100 S.2     1  UNL1       -0.0325
     18 C         140.1219  142.3311  164.9105 C.3     1  UNL1        0.0851
     19 C         140.2609  143.7697  165.3119 C.3     1  UNL1        0.0096
     20 C         139.0835  144.6937  165.2108 C.3     1  UNL1        0.0005
     21 C         137.7672  144.1790  164.7083 C.3     1  UNL1        0.0005
     22 C         137.6283  142.7404  164.3069 C.3     1  UNL1        0.0096
     23 C         138.8056  141.8164  164.4081 C.3     1  UNL1        0.0853
     24 N         142.2685  141.2998  163.8719 N.am    1  UNL1       -0.2959
     25 C         141.2992  141.4072  165.0117 C.2     1  UNL1        0.2231
     26 O         141.5073  140.5906  166.2526 O.2     1  UNL1       -0.2751
     27 H         142.1318  141.8358  163.0574 H       1  UNL1        0.1502
     28 C         143.4458  140.3759  163.9730 C.3     1  UNL1        0.1364
     29 C         144.8314  139.8860  164.2731 C.3     1  UNL1        0.0353
     30 C         144.4544  141.3048  164.5811 C.3     1  UNL1        0.0353
     31 N         142.2463  137.8763  162.8271 N.1     1  UNL1       -0.1943
     32 C         142.8460  139.1261  163.4000 C.1     1  UNL1        0.0896
@<TRIPOS>BOND
     1    31    32    3
     2    32    28    1
     3    28    24    1
     4    24    25   am
     5    25    26    2
     6    18    25    1
     7    18    19    1
     8    19    20    1
     9    20    21    1
    10    21    22    1
    11    22    23    1
    12    23     1    1
    13     1     2    2
    14     1     3   am
    15     3     4    1
    16     4     5    1
    17     5     6    1
    18     6     9    1
    19     9    10   ar
    20    10    11   ar
    21    11    12   ar
    22    12    13   ar
    23    13    14   ar
    24    14    15   ar
    25    15    16   ar
    26    16    17   ar
    27     6     7    1
    28     7     8    1
    29    28    29    1
    30    29    30    1
    31    30    28    1
    32    23    18    1
    33     8     3    1
    34    17     9   ar
    35    16    11   ar
    36    24    27    1
