@<TRIPOS>MOLECULE
*****
 36 39 0 0 0
SMALL
GASTEIGER

@<TRIPOS>ATOM
      1 N         142.5415  140.5742  167.9938 N.3     1  UNL1       -0.2684
      2 C         142.8953  142.0167  167.7842 C.3     1  UNL1        0.1035
      3 C         143.5176  142.4562  166.4921 C.3     1  UNL1        0.1470
      4 C         144.1399  142.8957  165.2000 C.3     1  UNL1        0.1035
      5 N         144.4084  141.8927  164.1175 N.3     1  UNL1       -0.2673
      6 C         144.0546  140.4502  164.3271 C.3     1  UNL1        0.1035
      7 C         143.4323  140.0107  165.6192 C.3     1  UNL1        0.1470
      8 C         142.8100  139.5712  166.9113 C.3     1  UNL1        0.1035
      9 O         143.7861  141.4532  165.4096 O.3     1  UNL1       -0.3530
     10 C         141.9192  140.1346  169.2860 C.3     1  UNL1        0.0761
     11 C         140.4335  139.9505  169.3784 C.3     1  UNL1        0.0646
     12 C         139.5641  140.2618  168.1963 C.3     1  UNL1        0.2068
     13 O         138.8295  139.1584  167.4942 O.3     1  UNL1       -0.4754
     14 C         138.3715  139.2526  163.0186 C.ar    1  UNL1        0.0686
     15 C         138.0923  140.4848  163.8272 C.ar    1  UNL1        0.0134
     16 C         138.2450  140.4534  165.3190 C.ar    1  UNL1        0.0376
     17 C         138.6769  139.1898  166.0024 C.ar    1  UNL1        0.1386
     18 C         138.9560  137.9576  165.1938 C.ar    1  UNL1        0.0376
     19 C         138.8033  137.9890  163.7019 C.ar    1  UNL1        0.0134
     20 N         138.0661  139.3153  160.0348 N.1     1  UNL1       -0.1908
     21 C         138.2188  139.2840  161.5268 C.1     1  UNL1        0.1004
     22 C         145.0307  142.3322  162.8254 C.3     1  UNL1        0.0913
     23 C         144.2110  143.0760  161.8129 C.3     1  UNL1        0.1087
     24 N         142.8377  142.5896  161.4562 N.3     1  UNL1       -0.1779
     25 H         142.8666  141.5708  161.4959 H       1  UNL1        0.1488
     26 S         141.6542  143.0212  162.2705 S.O2    1  UNL1        0.0624
     27 O         141.2519  141.5869  162.4460 O.2     1  UNL1       -0.1529
     28 O         142.0566  144.4555  162.0950 O.2     1  UNL1       -0.1529
     29 C         140.4707  143.4529  163.0849 C.ar    1  UNL1        0.1494
     30 C         140.5865  143.5628  164.5763 C.ar    1  UNL1        0.0245
     31 C         139.4031  143.9944  165.3907 C.ar    1  UNL1        0.0312
     32 C         138.1039  144.3162  164.7135 C.ar    1  UNL1        0.1425
     33 F         136.9204  144.7479  165.5279 F       1  UNL1       -0.2041
     34 C         137.9882  144.2063  163.2221 C.ar    1  UNL1        0.0606
     35 C         139.1716  143.7747  162.4077 C.ar    1  UNL1        0.1608
     36 F         139.0558  143.6648  160.9162 F       1  UNL1       -0.2027
@<TRIPOS>BOND
     1    20    21    3
     2    21    14    1
     3    14    15   ar
     4    15    16   ar
     5    16    17   ar
     6    17    13    1
     7    13    12    1
     8    12    11    1
     9    11    10    1
    10    10     1    1
    11     1     2    1
    12     2     3    1
    13     3     4    1
    14     4     5    1
    15     5    22    1
    16    22    23    1
    17    23    24    1
    18    24    26    1
    19    26    27    2
    20    26    28    2
    21    26    29    1
    22    29    30   ar
    23    30    31   ar
    24    31    32   ar
    25    32    33    1
    26    32    34   ar
    27    34    35   ar
    28    35    36    1
    29     5     6    1
    30     6     7    1
    31     7     8    1
    32     7     9    1
    33    17    18   ar
    34    18    19   ar
    35    19    14   ar
    36     8     1    1
    37     9     3    1
    38    35    29   ar
    39    24    25    1
@<TRIPOS>MOLECULE
*****
 36 39 0 0 0
SMALL
GASTEIGER

@<TRIPOS>ATOM
      1 N         141.5942  140.2696  167.5977 N.3     1  UNL1       -0.2684
      2 C         142.2224  139.1830  166.7764 C.3     1  UNL1        0.1035
      3 C         143.2552  139.5253  165.7439 C.3     1  UNL1        0.1470
      4 C         144.2881  139.8675  164.7113 C.3     1  UNL1        0.1035
      5 N         144.6928  141.2964  164.5002 N.3     1  UNL1       -0.2673
      6 C         144.0645  142.3830  165.3216 C.3     1  UNL1        0.1035
      7 C         143.0317  142.0408  166.3541 C.3     1  UNL1        0.1470
      8 C         141.9989  141.6985  167.3866 C.3     1  UNL1        0.1035
      9 O         143.6599  140.9542  165.5328 O.3     1  UNL1       -0.3530
     10 C         140.5613  139.9274  168.6303 C.3     1  UNL1        0.0761
     11 C         139.1031  140.0096  168.2884 C.3     1  UNL1        0.0646
     12 C         138.5355  139.1363  167.2089 C.3     1  UNL1        0.2068
     13 O         138.3851  139.6691  165.8148 O.3     1  UNL1       -0.4754
     14 C         141.2485  138.3791  162.5920 C.ar    1  UNL1        0.0686
     15 C         140.9938  139.8382  162.8289 C.ar    1  UNL1        0.0134
     16 C         140.0393  140.2682  163.9031 C.ar    1  UNL1        0.0376
     17 C         139.3395  139.2391  164.7406 C.ar    1  UNL1        0.1386
     18 C         139.5943  137.7799  164.5038 C.ar    1  UNL1        0.0376
     19 C         140.5489  137.3500  163.4295 C.ar    1  UNL1        0.0134
     20 N         143.1576  137.5190  160.4435 N.1     1  UNL1       -0.1908
     21 C         142.2030  137.9491  161.5178 C.1     1  UNL1        0.1004
     22 C         145.7256  141.6387  163.4677 C.3     1  UNL1        0.0913
     23 C         145.3002  142.0646  162.0938 C.3     1  UNL1        0.1087
     24 N         144.7875  143.4555  161.8648 N.3     1  UNL1       -0.1779
     25 H         145.0039  143.6935  160.8969 H       1  UNL1        0.1488
     26 S         143.3339  143.7624  162.0715 S.O2    1  UNL1        0.0624
     27 O         142.9665  142.4645  161.4154 O.2     1  UNL1       -0.1529
     28 O         143.7012  145.0603  162.7276 O.2     1  UNL1       -0.1529
     29 C         141.8802  144.0694  162.2783 C.ar    1  UNL1        0.1494
     30 C         141.2196  143.7283  163.5810 C.ar    1  UNL1        0.0245
     31 C         139.7660  144.0353  163.7878 C.ar    1  UNL1        0.0312
     32 C         138.9730  144.6833  162.6918 C.ar    1  UNL1        0.1425
     33 F         137.5193  144.9903  162.8986 F       1  UNL1       -0.2041
     34 C         139.6337  145.0244  161.3891 C.ar    1  UNL1        0.0606
     35 C         141.0873  144.7174  161.1823 C.ar    1  UNL1        0.1608
     36 F         141.7479  145.0585  159.8795 F       1  UNL1       -0.2027
@<TRIPOS>BOND
     1    20    21    3
     2    21    14    1
     3    14    15   ar
     4    15    16   ar
     5    16    17   ar
     6    17    13    1
     7    13    12    1
     8    12    11    1
     9    11    10    1
    10    10     1    1
    11     1     2    1
    12     2     3    1
    13     3     4    1
    14     4     5    1
    15     5    22    1
    16    22    23    1
    17    23    24    1
    18    24    26    1
    19    26    27    2
    20    26    28    2
    21    26    29    1
    22    29    30   ar
    23    30    31   ar
    24    31    32   ar
    25    32    33    1
    26    32    34   ar
    27    34    35   ar
    28    35    36    1
    29     5     6    1
    30     6     7    1
    31     7     8    1
    32     7     9    1
    33    17    18   ar
    34    18    19   ar
    35    19    14   ar
    36     8     1    1
    37     9     3    1
    38    35    29   ar
    39    24    25    1
@<TRIPOS>MOLECULE
*****
 36 39 0 0 0
SMALL
GASTEIGER

@<TRIPOS>ATOM
      1 N         139.5851  137.6505  164.0388 N.3     1  UNL1       -0.2684
      2 C         138.7975  137.9651  162.8016 C.3     1  UNL1        0.1035
      3 C         139.5078  138.2232  161.5059 C.3     1  UNL1        0.1470
      4 C         140.2181  138.4813  160.2101 C.3     1  UNL1        0.1035
      5 N         141.7159  138.4248  160.1516 N.3     1  UNL1       -0.2673
      6 C         142.5034  138.1102  161.3889 C.3     1  UNL1        0.1035
      7 C         141.7931  137.8521  162.6846 C.3     1  UNL1        0.1470
      8 C         141.0829  137.5940  163.9803 C.3     1  UNL1        0.1035
      9 O         141.0056  138.1667  161.4474 O.3     1  UNL1       -0.3530
     10 C         138.8748  137.3924  165.3346 C.3     1  UNL1        0.0761
     11 C         138.1580  138.5099  166.0325 C.3     1  UNL1        0.0646
     12 C         138.9408  139.5958  166.7095 C.3     1  UNL1        0.2068
     13 O         140.1393  140.1906  166.0315 O.3     1  UNL1       -0.4754
     14 C         139.6741  143.8261  163.4206 C.ar    1  UNL1        0.0686
     15 C         139.1101  142.5082  162.9788 C.ar    1  UNL1        0.0134
     16 C         139.2652  141.2964  163.8491 C.ar    1  UNL1        0.0376
     17 C         139.9843  141.4024  165.1613 C.ar    1  UNL1        0.1386
     18 C         140.5483  142.7202  165.6031 C.ar    1  UNL1        0.0376
     19 C         140.3932  143.9321  164.7327 C.ar    1  UNL1        0.0134
     20 N         139.3640  146.2498  161.6801 N.1     1  UNL1       -0.1908
     21 C         139.5191  145.0379  162.5504 C.1     1  UNL1        0.1004
     22 C         142.4261  138.6829  158.8559 C.3     1  UNL1        0.0913
     23 C         143.3375  139.8669  158.7231 C.3     1  UNL1        0.1087
     24 N         142.8474  141.2357  159.0917 N.3     1  UNL1       -0.1779
     25 H         141.8282  141.1963  159.0811 H       1  UNL1        0.1488
     26 S         143.2435  141.8461  160.4034 S.O2    1  UNL1        0.0624
     27 O         144.6065  142.1446  159.8529 O.2     1  UNL1       -0.1529
     28 O         141.8805  141.5476  160.9539 O.2     1  UNL1       -0.1529
     29 C         143.6395  142.4565  161.7151 C.ar    1  UNL1        0.1494
     30 C         143.2104  143.8537  162.0522 C.ar    1  UNL1        0.0245
     31 C         143.6064  144.4641  163.3638 C.ar    1  UNL1        0.0312
     32 C         144.4316  143.6773  164.3385 C.ar    1  UNL1        0.1425
     33 F         144.8276  144.2877  165.6502 F       1  UNL1       -0.2041
     34 C         144.8607  142.2801  164.0014 C.ar    1  UNL1        0.0606
     35 C         144.4647  141.6697  162.6898 C.ar    1  UNL1        0.1608
     36 F         144.8938  140.2725  162.3527 F       1  UNL1       -0.2027
@<TRIPOS>BOND
     1    20    21    3
     2    21    14    1
     3    14    15   ar
     4    15    16   ar
     5    16    17   ar
     6    17    13    1
     7    13    12    1
     8    12    11    1
     9    11    10    1
    10    10     1    1
    11     1     2    1
    12     2     3    1
    13     3     4    1
    14     4     5    1
    15     5    22    1
    16    22    23    1
    17    23    24    1
    18    24    26    1
    19    26    27    2
    20    26    28    2
    21    26    29    1
    22    29    30   ar
    23    30    31   ar
    24    31    32   ar
    25    32    33    1
    26    32    34   ar
    27    34    35   ar
    28    35    36    1
    29     5     6    1
    30     6     7    1
    31     7     8    1
    32     7     9    1
    33    17    18   ar
    34    18    19   ar
    35    19    14   ar
    36     8     1    1
    37     9     3    1
    38    35    29   ar
    39    24    25    1
@<TRIPOS>MOLECULE
*****
 36 39 0 0 0
SMALL
GASTEIGER

@<TRIPOS>ATOM
      1 N         143.7410  139.7096  163.5062 N.3     1  UNL1       -0.2684
      2 C         142.6657  139.3496  164.4881 C.3     1  UNL1        0.1035
      3 C         141.2898  139.0045  164.0005 C.3     1  UNL1        0.1470
      4 C         139.9138  138.6594  163.5129 C.3     1  UNL1        0.1035
      5 N         139.6132  138.6743  162.0434 N.3     1  UNL1       -0.2673
      6 C         140.6886  139.0343  161.0615 C.3     1  UNL1        0.1035
      7 C         142.0645  139.3793  161.5491 C.3     1  UNL1        0.1470
      8 C         143.4404  139.7244  162.0367 C.3     1  UNL1        0.1035
      9 O         140.9892  139.0194  162.5310 O.3     1  UNL1       -0.3530
     10 C         145.1170  140.0547  163.9938 C.3     1  UNL1        0.0761
     11 C         145.4552  141.4739  164.3423 C.3     1  UNL1        0.0646
     12 C         144.4617  142.5672  164.0819 C.3     1  UNL1        0.2068
     13 O         143.8238  143.2902  165.2309 O.3     1  UNL1       -0.4754
     14 C         140.7574  141.2031  167.7787 C.ar    1  UNL1        0.0686
     15 C         142.1887  141.2607  168.2238 C.ar    1  UNL1        0.0134
     16 C         143.2109  141.9563  167.3746 C.ar    1  UNL1        0.0376
     17 C         142.8017  142.5945  166.0802 C.ar    1  UNL1        0.1386
     18 C         141.3704  142.5370  165.6351 C.ar    1  UNL1        0.0376
     19 C         140.3483  141.8413  166.4844 C.ar    1  UNL1        0.0134
     20 N         138.7131  139.8118  169.4773 N.1     1  UNL1       -0.1908
     21 C         139.7353  140.5075  168.6280 C.1     1  UNL1        0.1004
     22 C         138.2373  138.3292  161.5558 C.3     1  UNL1        0.0913
     23 C         137.3619  139.3944  160.9651 C.3     1  UNL1        0.1087
     24 N         136.9718  140.5863  161.7880 N.3     1  UNL1       -0.1779
     25 H         136.6530  140.2304  162.6891 H       1  UNL1        0.1488
     26 S         137.9789  141.6595  162.0779 S.O2    1  UNL1        0.0624
     27 O         137.8293  141.4026  163.5482 O.2     1  UNL1       -0.1529
     28 O         138.1285  141.9164  160.6077 O.2     1  UNL1       -0.1529
     29 C         138.9861  142.7326  162.3679 C.ar    1  UNL1        0.1494
     30 C         140.4289  142.5220  162.0159 C.ar    1  UNL1        0.0245
     31 C         141.4360  143.5951  162.3059 C.ar    1  UNL1        0.0312
     32 C         141.0004  144.8788  162.9477 C.ar    1  UNL1        0.1425
     33 F         142.0075  145.9520  163.2377 F       1  UNL1       -0.2041
     34 C         139.5575  145.0895  163.2997 C.ar    1  UNL1        0.0606
     35 C         138.5504  144.0164  163.0098 C.ar    1  UNL1        0.1608
     36 F         137.1076  144.2271  163.3617 F       1  UNL1       -0.2027
@<TRIPOS>BOND
     1    20    21    3
     2    21    14    1
     3    14    15   ar
     4    15    16   ar
     5    16    17   ar
     6    17    13    1
     7    13    12    1
     8    12    11    1
     9    11    10    1
    10    10     1    1
    11     1     2    1
    12     2     3    1
    13     3     4    1
    14     4     5    1
    15     5    22    1
    16    22    23    1
    17    23    24    1
    18    24    26    1
    19    26    27    2
    20    26    28    2
    21    26    29    1
    22    29    30   ar
    23    30    31   ar
    24    31    32   ar
    25    32    33    1
    26    32    34   ar
    27    34    35   ar
    28    35    36    1
    29     5     6    1
    30     6     7    1
    31     7     8    1
    32     7     9    1
    33    17    18   ar
    34    18    19   ar
    35    19    14   ar
    36     8     1    1
    37     9     3    1
    38    35    29   ar
    39    24    25    1
@<TRIPOS>MOLECULE
*****
 36 39 0 0 0
SMALL
GASTEIGER

@<TRIPOS>ATOM
      1 N         139.5678  137.7268  164.0403 N.3     1  UNL1       -0.2684
      2 C         141.0210  137.3786  164.1695 C.3     1  UNL1        0.1035
      3 C         141.9945  137.8202  163.1172 C.3     1  UNL1        0.1470
      4 C         142.9680  138.2617  162.0648 C.3     1  UNL1        0.1035
      5 N         142.4882  139.0516  160.8833 N.3     1  UNL1       -0.2673
      6 C         141.0348  139.3998  160.7542 C.3     1  UNL1        0.1035
      7 C         140.0614  138.9582  161.8065 C.3     1  UNL1        0.1470
      8 C         139.0880  138.5167  162.8588 C.3     1  UNL1        0.1035
      9 O         141.5147  138.6100  161.9357 O.3     1  UNL1       -0.3530
     10 C         138.5943  137.2853  165.0926 C.3     1  UNL1        0.0761
     11 C         138.3565  138.1415  166.3010 C.3     1  UNL1        0.0646
     12 C         138.0390  139.5984  166.1372 C.3     1  UNL1        0.2068
     13 O         139.1307  140.6210  166.2486 O.3     1  UNL1       -0.4754
     14 C         139.2538  144.1003  163.3974 C.ar    1  UNL1        0.0686
     15 C         138.2153  143.0308  163.2312 C.ar    1  UNL1        0.0134
     16 C         138.1742  141.8711  164.1815 C.ar    1  UNL1        0.0376
     17 C         139.1718  141.7808  165.2982 C.ar    1  UNL1        0.1386
     18 C         140.2103  142.8503  165.4644 C.ar    1  UNL1        0.0376
     19 C         140.2513  144.0101  164.5140 C.ar    1  UNL1        0.0134
     20 N         139.3359  146.4199  161.4966 N.1     1  UNL1       -0.1908
     21 C         139.2948  145.2601  162.4470 C.1     1  UNL1        0.1004
     22 C         143.4616  139.4931  159.8310 C.3     1  UNL1        0.0913
     23 C         143.4034  140.8931  159.2955 C.3     1  UNL1        0.1087
     24 N         144.1616  141.9906  159.9814 N.3     1  UNL1       -0.1779
     25 H         143.8499  142.8683  159.5656 H       1  UNL1        0.1488
     26 S         144.0602  142.1561  161.4688 S.O2    1  UNL1        0.0624
     27 O         145.4963  141.7475  161.6122 O.2     1  UNL1       -0.1529
     28 O         142.6241  142.5647  161.3254 O.2     1  UNL1       -0.1529
     29 C         143.9587  142.3216  162.9562 C.ar    1  UNL1        0.1494
     30 C         143.6314  141.1409  163.8216 C.ar    1  UNL1        0.0245
     31 C         143.5299  141.3064  165.3089 C.ar    1  UNL1        0.0312
     32 C         143.7557  142.6525  165.9309 C.ar    1  UNL1        0.1425
     33 F         143.6543  142.8180  167.4184 F       1  UNL1       -0.2041
     34 C         144.0831  143.8332  165.0656 C.ar    1  UNL1        0.0606
     35 C         144.1845  143.6677  163.5782 C.ar    1  UNL1        0.1608
     36 F         144.5118  144.8484  162.7128 F       1  UNL1       -0.2027
@<TRIPOS>BOND
     1    20    21    3
     2    21    14    1
     3    14    15   ar
     4    15    16   ar
     5    16    17   ar
     6    17    13    1
     7    13    12    1
     8    12    11    1
     9    11    10    1
    10    10     1    1
    11     1     2    1
    12     2     3    1
    13     3     4    1
    14     4     5    1
    15     5    22    1
    16    22    23    1
    17    23    24    1
    18    24    26    1
    19    26    27    2
    20    26    28    2
    21    26    29    1
    22    29    30   ar
    23    30    31   ar
    24    31    32   ar
    25    32    33    1
    26    32    34   ar
    27    34    35   ar
    28    35    36    1
    29     5     6    1
    30     6     7    1
    31     7     8    1
    32     7     9    1
    33    17    18   ar
    34    18    19   ar
    35    19    14   ar
    36     8     1    1
    37     9     3    1
    38    35    29   ar
    39    24    25    1
@<TRIPOS>MOLECULE
*****
 36 39 0 0 0
SMALL
GASTEIGER

@<TRIPOS>ATOM
      1 N         141.6025  143.0335  160.2991 N.3     1  UNL1       -0.2684
      2 C         140.6691  141.9040  160.6198 C.3     1  UNL1        0.1035
      3 C         141.0810  140.8460  161.6000 C.3     1  UNL1        0.1470
      4 C         141.4929  139.7878  162.5802 C.3     1  UNL1        0.1035
      5 N         142.8382  139.8593  163.2397 N.3     1  UNL1       -0.2673
      6 C         143.7717  140.9888  162.9189 C.3     1  UNL1        0.1035
      7 C         143.3598  142.0469  161.9387 C.3     1  UNL1        0.1470
      8 C         142.9479  143.1049  160.9585 C.3     1  UNL1        0.1035
      9 O         142.4263  140.9174  162.2594 O.3     1  UNL1       -0.3530
     10 C         141.1906  144.0916  159.3188 C.3     1  UNL1        0.0761
     11 C         140.2612  145.1887  159.7459 C.3     1  UNL1        0.0646
     12 C         140.2388  145.6381  161.1769 C.3     1  UNL1        0.2068
     13 O         139.0070  145.4334  162.0081 O.3     1  UNL1       -0.4754
     14 C         138.5021  141.6475  164.3875 C.ar    1  UNL1        0.0686
     15 C         139.6509  142.5675  164.6768 C.ar    1  UNL1        0.0134
     16 C         139.8193  143.8295  163.8837 C.ar    1  UNL1        0.0376
     17 C         138.8387  144.1714  162.8012 C.ar    1  UNL1        0.1386
     18 C         137.6899  143.2514  162.5119 C.ar    1  UNL1        0.0376
     19 C         137.5216  141.9894  163.3051 C.ar    1  UNL1        0.0134
     20 N         138.1654  139.1235  165.9738 N.1     1  UNL1       -0.1908
     21 C         138.3338  140.3855  165.1807 C.1     1  UNL1        0.1004
     22 C         143.2501  138.8012  164.2199 C.3     1  UNL1        0.0913
     23 C         143.7497  139.1918  165.5793 C.3     1  UNL1        0.1087
     24 N         143.0543  138.6853  166.8080 N.3     1  UNL1       -0.1779
     25 H         143.7704  138.2622  167.3984 H       1  UNL1        0.1488
     26 S         142.2812  139.6327  167.6766 S.O2    1  UNL1        0.0624
     27 O         142.9756  139.0877  168.8893 O.2     1  UNL1       -0.1529
     28 O         141.5867  140.1778  166.4639 O.2     1  UNL1       -0.1529
     29 C         141.5080  140.5803  168.5452 C.ar    1  UNL1        0.1494
     30 C         140.1702  140.1763  169.0903 C.ar    1  UNL1        0.0245
     31 C         139.3970  141.1238  169.9589 C.ar    1  UNL1        0.0312
     32 C         139.9617  142.4753  170.2824 C.ar    1  UNL1        0.1425
     33 F         139.1885  143.4228  171.1510 F       1  UNL1       -0.2041
     34 C         141.2995  142.8792  169.7373 C.ar    1  UNL1        0.0606
     35 C         142.0726  141.9318  168.8687 C.ar    1  UNL1        0.1608
     36 F         143.4104  142.3358  168.3236 F       1  UNL1       -0.2027
@<TRIPOS>BOND
     1    20    21    3
     2    21    14    1
     3    14    15   ar
     4    15    16   ar
     5    16    17   ar
     6    17    13    1
     7    13    12    1
     8    12    11    1
     9    11    10    1
    10    10     1    1
    11     1     2    1
    12     2     3    1
    13     3     4    1
    14     4     5    1
    15     5    22    1
    16    22    23    1
    17    23    24    1
    18    24    26    1
    19    26    27    2
    20    26    28    2
    21    26    29    1
    22    29    30   ar
    23    30    31   ar
    24    31    32   ar
    25    32    33    1
    26    32    34   ar
    27    34    35   ar
    28    35    36    1
    29     5     6    1
    30     6     7    1
    31     7     8    1
    32     7     9    1
    33    17    18   ar
    34    18    19   ar
    35    19    14   ar
    36     8     1    1
    37     9     3    1
    38    35    29   ar
    39    24    25    1
@<TRIPOS>MOLECULE
*****
 36 39 0 0 0
SMALL
GASTEIGER

@<TRIPOS>ATOM
      1 N         140.5271  143.8945  160.9300 N.3     1  UNL1       -0.2684
      2 C         139.7169  142.8251  160.2593 C.3     1  UNL1        0.1035
      3 C         140.3699  141.5416  159.8396 C.3     1  UNL1        0.1470
      4 C         141.0230  140.2580  159.4200 C.3     1  UNL1        0.1035
      5 N         142.4863  140.0440  159.6710 N.3     1  UNL1       -0.2673
      6 C         143.2965  141.1135  160.3418 C.3     1  UNL1        0.1035
      7 C         142.6434  142.3970  160.7614 C.3     1  UNL1        0.1470
      8 C         141.9903  143.6805  161.1810 C.3     1  UNL1        0.1035
      9 O         141.8332  141.3276  160.0907 O.3     1  UNL1       -0.3530
     10 C         139.8740  145.1781  161.3496 C.3     1  UNL1        0.0761
     11 C         139.2099  145.2782  162.6908 C.3     1  UNL1        0.0646
     12 C         139.5435  144.2896  163.7686 C.3     1  UNL1        0.2068
     13 O         140.8936  144.3190  164.4215 O.3     1  UNL1       -0.4754
     14 C         142.1200  141.0018  167.2039 C.ar    1  UNL1        0.0686
     15 C         142.9632  141.3267  166.0067 C.ar    1  UNL1        0.0134
     16 C         142.5545  142.4325  165.0792 C.ar    1  UNL1        0.0376
     17 C         141.3024  143.2133  165.3490 C.ar    1  UNL1        0.1386
     18 C         140.4591  142.8883  166.5462 C.ar    1  UNL1        0.0376
     19 C         140.8680  141.7825  167.4737 C.ar    1  UNL1        0.0134
     20 N         142.9376  138.7903  169.0589 N.1     1  UNL1       -0.1908
     21 C         142.5288  139.8960  168.1313 C.1     1  UNL1        0.1004
     22 C         143.1394  138.7605  159.2514 C.3     1  UNL1        0.0913
     23 C         143.0497  137.5501  160.1330 C.3     1  UNL1        0.1087
     24 N         143.2839  137.6783  161.6090 N.3     1  UNL1       -0.1779
     25 H         144.0618  138.3272  161.7284 H       1  UNL1        0.1488
     26 S         142.1799  138.1563  162.5048 S.O2    1  UNL1        0.0624
     27 O         141.1976  137.3184  161.7413 O.2     1  UNL1       -0.1529
     28 O         143.1621  138.9942  163.2683 O.2     1  UNL1       -0.1529
     29 C         141.0758  138.6343  163.4007 C.ar    1  UNL1        0.1494
     30 C         140.4502  139.9777  163.1686 C.ar    1  UNL1        0.0245
     31 C         139.3462  140.4558  164.0645 C.ar    1  UNL1        0.0312
     32 C         138.8677  139.5904  165.1923 C.ar    1  UNL1        0.1425
     33 F         137.7636  140.0684  166.0882 F       1  UNL1       -0.2041
     34 C         139.4933  138.2470  165.4244 C.ar    1  UNL1        0.0606
     35 C         140.5973  137.7689  164.5286 C.ar    1  UNL1        0.1608
     36 F         141.2229  136.4255  164.7606 F       1  UNL1       -0.2027
@<TRIPOS>BOND
     1    20    21    3
     2    21    14    1
     3    14    15   ar
     4    15    16   ar
     5    16    17   ar
     6    17    13    1
     7    13    12    1
     8    12    11    1
     9    11    10    1
    10    10     1    1
    11     1     2    1
    12     2     3    1
    13     3     4    1
    14     4     5    1
    15     5    22    1
    16    22    23    1
    17    23    24    1
    18    24    26    1
    19    26    27    2
    20    26    28    2
    21    26    29    1
    22    29    30   ar
    23    30    31   ar
    24    31    32   ar
    25    32    33    1
    26    32    34   ar
    27    34    35   ar
    28    35    36    1
    29     5     6    1
    30     6     7    1
    31     7     8    1
    32     7     9    1
    33    17    18   ar
    34    18    19   ar
    35    19    14   ar
    36     8     1    1
    37     9     3    1
    38    35    29   ar
    39    24    25    1
@<TRIPOS>MOLECULE
*****
 36 39 0 0 0
SMALL
GASTEIGER

@<TRIPOS>ATOM
      1 N         140.9235  144.5516  163.6600 N.3     1  UNL1       -0.2684
      2 C         139.9295  144.1732  164.7177 C.3     1  UNL1        0.1035
      3 C         140.3696  143.3762  165.9097 C.3     1  UNL1        0.1470
      4 C         140.8096  142.5790  167.1018 C.3     1  UNL1        0.1035
      5 N         142.2437  142.1603  167.2362 N.3     1  UNL1       -0.2673
      6 C         143.2378  142.5387  166.1784 C.3     1  UNL1        0.1035
      7 C         142.7977  143.3358  164.9864 C.3     1  UNL1        0.1470
      8 C         142.3576  144.1328  163.7944 C.3     1  UNL1        0.1035
      9 O         141.8037  142.9574  166.0441 O.3     1  UNL1       -0.3530
     10 C         140.4835  145.3487  162.4679 C.3     1  UNL1        0.0761
     11 C         140.8770  144.9130  161.0876 C.3     1  UNL1        0.0646
     12 C         139.8905  144.1892  160.2198 C.3     1  UNL1        0.2068
     13 O         139.8361  142.6903  160.2354 O.3     1  UNL1       -0.4754
     14 C         138.5830  140.5233  163.9749 C.ar    1  UNL1        0.0686
     15 C         137.5541  141.2058  163.1231 C.ar    1  UNL1        0.0134
     16 C         137.9718  141.9281  161.8766 C.ar    1  UNL1        0.0376
     17 C         139.4184  141.9680  161.4819 C.ar    1  UNL1        0.1386
     18 C         140.4473  141.2855  162.3336 C.ar    1  UNL1        0.0376
     19 C         140.0296  140.5631  163.5802 C.ar    1  UNL1        0.0134
     20 N         137.7477  139.0785  166.4679 N.1     1  UNL1       -0.1908
     21 C         138.1654  139.8009  165.2213 C.1     1  UNL1        0.1004
     22 C         142.6838  141.3632  168.4282 C.3     1  UNL1        0.0913
     23 C         142.3044  139.9166  168.5447 C.3     1  UNL1        0.1087
     24 N         143.1033  138.8714  167.8242 N.3     1  UNL1       -0.1779
     25 H         142.9283  137.9867  168.3007 H       1  UNL1        0.1488
     26 S         142.8744  138.6283  166.3619 S.O2    1  UNL1        0.0624
     27 O         141.4775  139.1591  166.4923 O.2     1  UNL1       -0.1529
     28 O         144.2712  138.0975  166.2315 O.2     1  UNL1       -0.1529
     29 C         142.6455  138.3852  164.8995 C.ar    1  UNL1        0.1494
     30 C         141.5559  137.4548  164.4554 C.ar    1  UNL1        0.0245
     31 C         141.3270  137.2117  162.9931 C.ar    1  UNL1        0.0312
     32 C         142.1877  137.8989  161.9748 C.ar    1  UNL1        0.1425
     33 F         141.9589  137.6557  160.5124 F       1  UNL1       -0.2041
     34 C         143.2774  138.8292  162.4189 C.ar    1  UNL1        0.0606
     35 C         143.5063  139.0723  163.8812 C.ar    1  UNL1        0.1608
     36 F         144.5959  140.0026  164.3253 F       1  UNL1       -0.2027
@<TRIPOS>BOND
     1    20    21    3
     2    21    14    1
     3    14    15   ar
     4    15    16   ar
     5    16    17   ar
     6    17    13    1
     7    13    12    1
     8    12    11    1
     9    11    10    1
    10    10     1    1
    11     1     2    1
    12     2     3    1
    13     3     4    1
    14     4     5    1
    15     5    22    1
    16    22    23    1
    17    23    24    1
    18    24    26    1
    19    26    27    2
    20    26    28    2
    21    26    29    1
    22    29    30   ar
    23    30    31   ar
    24    31    32   ar
    25    32    33    1
    26    32    34   ar
    27    34    35   ar
    28    35    36    1
    29     5     6    1
    30     6     7    1
    31     7     8    1
    32     7     9    1
    33    17    18   ar
    34    18    19   ar
    35    19    14   ar
    36     8     1    1
    37     9     3    1
    38    35    29   ar
    39    24    25    1
@<TRIPOS>MOLECULE
*****
 36 39 0 0 0
SMALL
GASTEIGER

@<TRIPOS>ATOM
      1 N         141.9745  141.0821  159.6766 N.3     1  UNL1       -0.2684
      2 C         140.4829  140.9328  159.7294 C.3     1  UNL1        0.1035
      3 C         139.6635  141.8774  160.5578 C.3     1  UNL1        0.1470
      4 C         138.8441  142.8220  161.3862 C.3     1  UNL1        0.1035
      5 N         139.5163  143.9159  162.1619 N.3     1  UNL1       -0.2673
      6 C         141.0080  144.0651  162.1090 C.3     1  UNL1        0.1035
      7 C         141.8273  143.1205  161.2806 C.3     1  UNL1        0.1470
      8 C         142.6467  142.1759  160.4522 C.3     1  UNL1        0.1035
      9 O         140.3358  142.9713  161.3334 O.3     1  UNL1       -0.3530
     10 C         142.7940  140.1374  158.8482 C.3     1  UNL1        0.0761
     11 C         143.2091  138.8113  159.4129 C.3     1  UNL1        0.0646
     12 C         142.7662  138.4103  160.7889 C.3     1  UNL1        0.2068
     13 O         141.5449  137.5575  160.9649 O.3     1  UNL1       -0.4754
     14 C         139.0633  137.9254  164.7007 C.ar    1  UNL1        0.0686
     15 C         138.5390  138.4510  163.3973 C.ar    1  UNL1        0.0134
     16 C         139.3662  138.3284  162.1520 C.ar    1  UNL1        0.0376
     17 C         140.7177  137.6801  162.2101 C.ar    1  UNL1        0.1386
     18 C         141.2419  137.1545  163.5135 C.ar    1  UNL1        0.0376
     19 C         140.4147  137.2772  164.7588 C.ar    1  UNL1        0.0134
     20 N         137.4088  138.1706  167.1912 N.1     1  UNL1       -0.1908
     21 C         138.2361  138.0480  165.9459 C.1     1  UNL1        0.1004
     22 C         138.6969  144.8605  162.9903 C.3     1  UNL1        0.0913
     23 C         138.7089  144.7499  164.4862 C.3     1  UNL1        0.1087
     24 N         138.4155  143.4339  165.1433 N.3     1  UNL1       -0.1779
     25 H         137.7130  142.9680  164.5689 H       1  UNL1        0.1488
     26 S         139.5200  142.4435  165.3648 S.O2    1  UNL1        0.0624
     27 O         138.6709  141.3624  164.7645 O.2     1  UNL1       -0.1529
     28 O         140.3691  143.5245  165.9650 O.2     1  UNL1       -0.1529
     29 C         140.6246  141.4530  165.5862 C.ar    1  UNL1        0.1494
     30 C         141.6482  141.2192  164.5150 C.ar    1  UNL1        0.0245
     31 C         142.7527  140.2288  164.7364 C.ar    1  UNL1        0.0312
     32 C         142.8337  139.4723  166.0290 C.ar    1  UNL1        0.1425
     33 F         143.9383  138.4819  166.2505 F       1  UNL1       -0.2041
     34 C         141.8102  139.7062  167.1003 C.ar    1  UNL1        0.0606
     35 C         140.7056  140.6965  166.8789 C.ar    1  UNL1        0.1608
     36 F         139.6820  140.9303  167.9502 F       1  UNL1       -0.2027
@<TRIPOS>BOND
     1    20    21    3
     2    21    14    1
     3    14    15   ar
     4    15    16   ar
     5    16    17   ar
     6    17    13    1
     7    13    12    1
     8    12    11    1
     9    11    10    1
    10    10     1    1
    11     1     2    1
    12     2     3    1
    13     3     4    1
    14     4     5    1
    15     5    22    1
    16    22    23    1
    17    23    24    1
    18    24    26    1
    19    26    27    2
    20    26    28    2
    21    26    29    1
    22    29    30   ar
    23    30    31   ar
    24    31    32   ar
    25    32    33    1
    26    32    34   ar
    27    34    35   ar
    28    35    36    1
    29     5     6    1
    30     6     7    1
    31     7     8    1
    32     7     9    1
    33    17    18   ar
    34    18    19   ar
    35    19    14   ar
    36     8     1    1
    37     9     3    1
    38    35    29   ar
    39    24    25    1
