@<TRIPOS>MOLECULE
*****
 31 34 0 0 0
SMALL
GASTEIGER

@<TRIPOS>ATOM
      1 N         137.8379  141.5360  162.0044 N.pl3   1  UNL1       -0.3269
      2 H         137.6576  141.4112  161.0446 H       1  UNL1        0.1472
      3 C         138.5765  139.3296  165.2194 C.ar    1  UNL1        0.0821
      4 C         138.2596  140.5143  164.3556 C.ar    1  UNL1        0.0234
      5 C         138.1548  140.3513  162.8682 C.ar    1  UNL1        0.0730
      6 C         138.3669  139.0037  162.2446 C.ar    1  UNL1        0.1554
      7 F         138.2621  138.8407  160.7571 F       1  UNL1       -0.2028
      8 C         138.6838  137.8190  163.1084 C.ar    1  UNL1        0.0607
      9 C         138.7886  137.9820  164.5958 C.ar    1  UNL1        0.1468
     10 F         139.1055  136.7973  165.4596 F       1  UNL1       -0.2039
     11 O         137.8129  138.6725  167.6142 O.2     1  UNL1       -0.2701
     12 C         138.6813  139.4926  166.7069 C.2     1  UNL1        0.2480
     13 N         139.6545  140.4756  167.2869 N.am    1  UNL1       -0.3024
     14 H         140.2245  141.0139  166.6914 H       1  UNL1        0.1497
     15 C         139.7593  140.6386  168.7744 C.3     1  UNL1        0.0720
     16 C         139.6057  141.4862  170.0024 C.3     1  UNL1        0.0213
     17 C         140.0945  140.0732  170.1228 C.3     1  UNL1        0.0213
     18 C         137.7957  142.9107  162.6029 C.3     1  UNL1        0.1225
     19 C         138.9667  143.8344  162.4434 C.ar    1  UNL1        0.0487
     20 C         138.9295  145.3306  162.5437 C.ar    1  UNL1        0.1047
     21 N         140.3203  145.8450  162.3179 N.ar    1  UNL1       -0.2227
     22 C         141.2171  144.6667  162.0782 C.ar    1  UNL1        0.1644
     23 S         140.3805  143.4242  162.1557 S.2     1  UNL1       -0.0540
     24 N         142.6916  144.7215  161.8082 N.pl3   1  UNL1       -0.2782
     25 H         143.0472  145.3553  161.1441 H       1  UNL1        0.1555
     26 C         143.6242  143.8107  162.5501 C.ar    1  UNL1        0.1336
     27 C         143.7494  143.9183  164.0410 C.ar    1  UNL1        0.0345
     28 C         144.6821  143.0075  164.7831 C.ar    1  UNL1        0.0045
     29 C         145.4895  141.9891  164.0342 C.ar    1  UNL1        0.0208
     30 C         145.3643  141.8815  162.5433 C.ar    1  UNL1        0.1003
     31 N         144.4317  142.7923  161.8013 N.ar    1  UNL1       -0.2290
@<TRIPOS>BOND
     1    11    12    2
     2    12    13   am
     3    13    15    1
     4    15    16    1
     5    16    17    1
     6    12     3    1
     7     3     4   ar
     8     4     5   ar
     9     5     1    1
    10     1    18    1
    11    18    19    1
    12    19    20   ar
    13    20    21   ar
    14    21    22   ar
    15    22    24    1
    16    24    26    1
    17    26    27   ar
    18    27    28   ar
    19    28    29   ar
    20    29    30   ar
    21    30    31   ar
    22    22    23   ar
    23     5     6   ar
    24     6     7    1
    25     6     8   ar
    26     8     9   ar
    27     9    10    1
    28    17    15    1
    29     9     3   ar
    30    23    19   ar
    31    31    26   ar
    32    13    14    1
    33     1     2    1
    34    24    25    1
@<TRIPOS>MOLECULE
*****
 31 34 0 0 0
SMALL
GASTEIGER

@<TRIPOS>ATOM
      1 N         140.9024  146.0539  162.3752 N.pl3   1  UNL1       -0.3269
      2 H         141.2478  146.9749  162.3350 H       1  UNL1        0.1472
      3 C         143.1407  143.4470  164.3612 C.ar    1  UNL1        0.0821
      4 C         142.2075  144.5861  164.0760 C.ar    1  UNL1        0.0234
      5 C         141.8357  144.9147  162.6605 C.ar    1  UNL1        0.0730
      6 C         142.3972  144.1041  161.5301 C.ar    1  UNL1        0.1554
      7 F         142.0254  144.4327  160.1145 F       1  UNL1       -0.2028
      8 C         143.3305  142.9650  161.8153 C.ar    1  UNL1        0.0607
      9 C         143.7022  142.6364  163.2309 C.ar    1  UNL1        0.1468
     10 F         144.6355  141.4972  163.5161 F       1  UNL1       -0.2039
     11 O         144.8229  143.5874  166.3362 O.2     1  UNL1       -0.2701
     12 C         143.5126  143.1184  165.7768 C.2     1  UNL1        0.2480
     13 N         142.5740  142.3209  166.6329 N.am    1  UNL1       -0.3024
     14 H         141.7140  142.0130  166.2658 H       1  UNL1        0.1497
     15 C         142.9458  141.9923  168.0485 C.3     1  UNL1        0.0720
     16 C         143.4831  142.4179  169.3827 C.3     1  UNL1        0.0213
     17 C         143.0525  140.9975  169.1662 C.3     1  UNL1        0.0213
     18 C         139.4430  145.7896  162.1513 C.3     1  UNL1        0.1225
     19 C         138.7595  144.6790  162.8924 C.ar    1  UNL1        0.0487
     20 C         138.4171  144.6735  164.3528 C.ar    1  UNL1        0.1047
     21 N         137.7444  143.3700  164.6662 N.ar    1  UNL1       -0.2227
     22 C         137.6710  142.5698  163.3995 C.ar    1  UNL1        0.1644
     23 S         138.2984  143.3789  162.3033 S.2     1  UNL1       -0.0540
     24 N         137.0749  141.2010  163.2546 N.pl3   1  UNL1       -0.2782
     25 H         136.1877  141.0916  162.8422 H       1  UNL1        0.1555
     26 C         137.8306  139.9989  163.7380 C.ar    1  UNL1        0.1336
     27 C         138.1308  139.8393  165.1990 C.ar    1  UNL1        0.0345
     28 C         138.8865  138.6372  165.6825 C.ar    1  UNL1        0.0045
     29 C         139.3420  137.5946  164.7050 C.ar    1  UNL1        0.0208
     30 C         139.0417  137.7541  163.2440 C.ar    1  UNL1        0.1003
     31 N         138.2860  138.9563  162.7605 N.ar    1  UNL1       -0.2290
@<TRIPOS>BOND
     1    11    12    2
     2    12    13   am
     3    13    15    1
     4    15    16    1
     5    16    17    1
     6    12     3    1
     7     3     4   ar
     8     4     5   ar
     9     5     1    1
    10     1    18    1
    11    18    19    1
    12    19    20   ar
    13    20    21   ar
    14    21    22   ar
    15    22    24    1
    16    24    26    1
    17    26    27   ar
    18    27    28   ar
    19    28    29   ar
    20    29    30   ar
    21    30    31   ar
    22    22    23   ar
    23     5     6   ar
    24     6     7    1
    25     6     8   ar
    26     8     9   ar
    27     9    10    1
    28    17    15    1
    29     9     3   ar
    30    23    19   ar
    31    31    26   ar
    32    13    14    1
    33     1     2    1
    34    24    25    1
@<TRIPOS>MOLECULE
*****
 31 34 0 0 0
SMALL
GASTEIGER

@<TRIPOS>ATOM
      1 N         145.4823  140.5443  163.2323 N.pl3   1  UNL1       -0.3269
      2 H         146.2664  140.0618  162.8835 H       1  UNL1        0.1472
      3 C         142.6060  139.1863  165.6056 C.ar    1  UNL1        0.0821
      4 C         143.8037  139.9503  165.1243 C.ar    1  UNL1        0.0234
      5 C         144.2845  139.7803  163.7137 C.ar    1  UNL1        0.0730
      6 C         143.5676  138.8462  162.7844 C.ar    1  UNL1        0.1554
      7 F         144.0484  138.6762  161.3737 F       1  UNL1       -0.2028
      8 C         142.3699  138.0822  163.2657 C.ar    1  UNL1        0.0607
      9 C         141.8891  138.2523  164.6764 C.ar    1  UNL1        0.1468
     10 F         140.6913  137.4882  165.1578 F       1  UNL1       -0.2039
     11 O         143.0071  138.9581  168.1624 O.2     1  UNL1       -0.2701
     12 C         142.1252  139.3564  167.0163 C.2     1  UNL1        0.2480
     13 N         140.7625  139.9247  167.2808 N.am    1  UNL1       -0.3024
     14 H         140.1836  140.1861  166.5286 H       1  UNL1        0.1497
     15 C         140.2816  140.0947  168.6915 C.3     1  UNL1        0.0720
     16 C         139.1821  140.4186  169.6590 C.3     1  UNL1        0.0213
     17 C         140.5483  140.0653  170.1673 C.3     1  UNL1        0.0213
     18 C         145.4853  142.0435  163.2823 C.3     1  UNL1        0.1225
     19 C         144.4386  142.8208  162.5406 C.ar    1  UNL1        0.0487
     20 C         144.2165  142.8076  161.0572 C.ar    1  UNL1        0.1047
     21 N         143.0708  143.7264  160.7519 N.ar    1  UNL1       -0.2227
     22 C         142.5848  144.3074  162.0466 C.ar    1  UNL1        0.1644
     23 S         143.4301  143.7477  163.1521 S.2     1  UNL1       -0.0540
     24 N         141.4523  145.2778  162.2075 N.pl3   1  UNL1       -0.2782
     25 H         141.5335  146.1924  161.8524 H       1  UNL1        0.1555
     26 C         140.1961  144.8546  162.9096 C.ar    1  UNL1        0.1336
     27 C         140.1084  144.9372  164.4047 C.ar    1  UNL1        0.0345
     28 C         138.8523  144.5141  165.1069 C.ar    1  UNL1        0.0045
     29 C         137.6838  144.0084  164.3138 C.ar    1  UNL1        0.0208
     30 C         137.7715  143.9258  162.8186 C.ar    1  UNL1        0.1003
     31 N         139.0277  144.3490  162.1165 N.ar    1  UNL1       -0.2290
@<TRIPOS>BOND
     1    11    12    2
     2    12    13   am
     3    13    15    1
     4    15    16    1
     5    16    17    1
     6    12     3    1
     7     3     4   ar
     8     4     5   ar
     9     5     1    1
    10     1    18    1
    11    18    19    1
    12    19    20   ar
    13    20    21   ar
    14    21    22   ar
    15    22    24    1
    16    24    26    1
    17    26    27   ar
    18    27    28   ar
    19    28    29   ar
    20    29    30   ar
    21    30    31   ar
    22    22    23   ar
    23     5     6   ar
    24     6     7    1
    25     6     8   ar
    26     8     9   ar
    27     9    10    1
    28    17    15    1
    29     9     3   ar
    30    23    19   ar
    31    31    26   ar
    32    13    14    1
    33     1     2    1
    34    24    25    1
@<TRIPOS>MOLECULE
*****
 31 34 0 0 0
SMALL
GASTEIGER

@<TRIPOS>ATOM
      1 N         141.6605  137.4347  164.2900 N.pl3   1  UNL1       -0.3269
      2 H         142.2218  136.7044  163.9425 H       1  UNL1        0.1472
      3 C         142.5225  140.6781  166.4083 C.ar    1  UNL1        0.0821
      4 C         141.8939  139.3801  165.9962 C.ar    1  UNL1        0.0234
      5 C         142.2891  138.7328  164.7021 C.ar    1  UNL1        0.0730
      6 C         143.3130  139.3837  163.8200 C.ar    1  UNL1        0.1554
      7 F         143.7082  138.7364  162.5258 F       1  UNL1       -0.2028
      8 C         143.9416  140.6817  164.2321 C.ar    1  UNL1        0.0607
      9 C         143.5464  141.3289  165.5262 C.ar    1  UNL1        0.1468
     10 F         144.1751  142.6270  165.9383 F       1  UNL1       -0.2039
     11 O         142.9365  141.0802  168.9415 O.2     1  UNL1       -0.2701
     12 C         142.1273  141.3254  167.7025 C.2     1  UNL1        0.2480
     13 N         140.9230  142.2178  167.7577 N.am    1  UNL1       -0.3024
     14 H         140.3919  142.3787  166.9445 H       1  UNL1        0.1497
     15 C         140.5278  142.8651  169.0519 C.3     1  UNL1        0.0720
     16 C         140.4722  144.0765  169.9347 C.3     1  UNL1        0.0213
     17 C         139.8988  142.7747  170.4107 C.3     1  UNL1        0.0213
     18 C         140.1766  137.2495  164.4073 C.3     1  UNL1        0.1225
     19 C         139.2470  138.1215  163.6165 C.ar    1  UNL1        0.0487
     20 C         138.7651  137.8584  162.2206 C.ar    1  UNL1        0.1047
     21 N         137.8564  138.9840  161.8240 N.ar    1  UNL1       -0.2227
     22 C         137.7767  139.9428  162.9749 C.ar    1  UNL1        0.1644
     23 S         138.6361  139.4097  164.0826 S.2     1  UNL1       -0.0540
     24 N         136.9778  141.2118  163.0115 N.pl3   1  UNL1       -0.2782
     25 H         136.0007  141.1819  162.8945 H       1  UNL1        0.1555
     26 C         137.6675  142.5263  163.2263 C.ar    1  UNL1        0.1336
     27 C         137.8021  143.0851  164.6118 C.ar    1  UNL1        0.0345
     28 C         138.4918  144.3996  164.8267 C.ar    1  UNL1        0.0045
     29 C         139.0470  145.1555  163.6560 C.ar    1  UNL1        0.0208
     30 C         138.9124  144.5967  162.2705 C.ar    1  UNL1        0.1003
     31 N         138.2227  143.2821  162.0556 N.ar    1  UNL1       -0.2290
@<TRIPOS>BOND
     1    11    12    2
     2    12    13   am
     3    13    15    1
     4    15    16    1
     5    16    17    1
     6    12     3    1
     7     3     4   ar
     8     4     5   ar
     9     5     1    1
    10     1    18    1
    11    18    19    1
    12    19    20   ar
    13    20    21   ar
    14    21    22   ar
    15    22    24    1
    16    24    26    1
    17    26    27   ar
    18    27    28   ar
    19    28    29   ar
    20    29    30   ar
    21    30    31   ar
    22    22    23   ar
    23     5     6   ar
    24     6     7    1
    25     6     8   ar
    26     8     9   ar
    27     9    10    1
    28    17    15    1
    29     9     3   ar
    30    23    19   ar
    31    31    26   ar
    32    13    14    1
    33     1     2    1
    34    24    25    1
@<TRIPOS>MOLECULE
*****
 31 34 0 0 0
SMALL
GASTEIGER

@<TRIPOS>ATOM
      1 N         137.3261  140.3056  163.3118 N.pl3   1  UNL1       -0.3269
      2 H         136.3686  140.1629  163.4908 H       1  UNL1        0.1472
      3 C         139.5872  141.1571  166.4602 C.ar    1  UNL1        0.0821
      4 C         138.7485  140.3861  165.4845 C.ar    1  UNL1        0.0234
      5 C         138.1648  141.0766  164.2876 C.ar    1  UNL1        0.0730
      6 C         138.4197  142.5382  164.0666 C.ar    1  UNL1        0.1554
      7 F         137.8360  143.2287  162.8697 F       1  UNL1       -0.2028
      8 C         139.2584  143.3092  165.0423 C.ar    1  UNL1        0.0607
      9 C         139.8421  142.6187  166.2391 C.ar    1  UNL1        0.1468
     10 F         140.6808  143.3897  167.2150 F       1  UNL1       -0.2039
     11 O         139.2847  139.6755  168.5729 O.2     1  UNL1       -0.2701
     12 C         140.1709  140.4666  167.6571 C.2     1  UNL1        0.2480
     13 N         141.6409  140.5673  167.9382 N.am    1  UNL1       -0.3024
     14 H         142.2226  141.0866  167.3371 H       1  UNL1        0.1497
     15 C         142.2246  139.8768  169.1351 C.3     1  UNL1        0.0720
     16 C         142.6076  138.6136  169.8476 C.3     1  UNL1        0.0213
     17 C         142.8528  139.9440  170.4956 C.3     1  UNL1        0.0213
     18 C         137.9464  139.7518  162.0634 C.3     1  UNL1        0.1225
     19 C         139.2564  139.0247  162.1356 C.ar    1  UNL1        0.0487
     20 C         139.4807  137.6701  162.7394 C.ar    1  UNL1        0.1047
     21 N         140.9350  137.3328  162.5937 N.ar    1  UNL1       -0.2227
     22 C         141.6095  138.4789  161.8997 C.ar    1  UNL1        0.1644
     23 S         140.5720  139.5246  161.6166 S.2     1  UNL1       -0.0540
     24 N         143.0657  138.5643  161.5502 N.pl3   1  UNL1       -0.2782
     25 H         143.4475  137.9535  160.8791 H       1  UNL1        0.1555
     26 C         143.9402  139.5802  162.2232 C.ar    1  UNL1        0.1336
     27 C         144.4566  139.3254  163.6083 C.ar    1  UNL1        0.0345
     28 C         145.3312  140.3413  164.2814 C.ar    1  UNL1        0.0045
     29 C         145.6892  141.6121  163.5694 C.ar    1  UNL1        0.0208
     30 C         145.1728  141.8669  162.1844 C.ar    1  UNL1        0.1003
     31 N         144.2982  140.8510  161.5113 N.ar    1  UNL1       -0.2290
@<TRIPOS>BOND
     1    11    12    2
     2    12    13   am
     3    13    15    1
     4    15    16    1
     5    16    17    1
     6    12     3    1
     7     3     4   ar
     8     4     5   ar
     9     5     1    1
    10     1    18    1
    11    18    19    1
    12    19    20   ar
    13    20    21   ar
    14    21    22   ar
    15    22    24    1
    16    24    26    1
    17    26    27   ar
    18    27    28   ar
    19    28    29   ar
    20    29    30   ar
    21    30    31   ar
    22    22    23   ar
    23     5     6   ar
    24     6     7    1
    25     6     8   ar
    26     8     9   ar
    27     9    10    1
    28    17    15    1
    29     9     3   ar
    30    23    19   ar
    31    31    26   ar
    32    13    14    1
    33     1     2    1
    34    24    25    1
@<TRIPOS>MOLECULE
*****
 31 34 0 0 0
SMALL
GASTEIGER

@<TRIPOS>ATOM
      1 N         138.5187  138.1277  163.6274 N.pl3   1  UNL1       -0.3269
      2 H         137.8570  137.4561  163.9109 H       1  UNL1        0.1472
      3 C         140.7921  139.5933  166.5315 C.ar    1  UNL1        0.0821
      4 C         139.5935  139.3130  165.6744 C.ar    1  UNL1        0.0234
      5 C         139.7174  138.4080  164.4846 C.ar    1  UNL1        0.0730
      6 C         141.0399  137.7832  164.1520 C.ar    1  UNL1        0.1554
      7 F         141.1637  136.8781  162.9622 F       1  UNL1       -0.2028
      8 C         142.2385  138.0634  165.0092 C.ar    1  UNL1        0.0607
      9 C         142.1146  138.9685  166.1989 C.ar    1  UNL1        0.1468
     10 F         143.3133  139.2487  167.0561 F       1  UNL1       -0.2039
     11 O         139.8625  140.0674  168.9108 O.2     1  UNL1       -0.2701
     12 C         140.6683  140.4983  167.7213 C.2     1  UNL1        0.2480
     13 N         141.3503  141.8343  167.7216 N.am    1  UNL1       -0.3024
     14 H         141.8792  142.1171  166.9409 H       1  UNL1        0.1497
     15 C         141.2265  142.7394  168.9114 C.3     1  UNL1        0.0720
     16 C         140.4373  143.7334  169.7109 C.3     1  UNL1        0.0213
     17 C         141.8011  143.3130  170.1727 C.3     1  UNL1        0.0213
     18 C         138.3283  138.8708  162.3384 C.3     1  UNL1        0.1225
     19 C         138.3617  140.3703  162.3251 C.ar    1  UNL1        0.0487
     20 C         137.3347  141.2805  162.9306 C.ar    1  UNL1        0.1047
     21 N         137.7663  142.6957  162.6837 N.ar    1  UNL1       -0.2227
     22 C         139.0601  142.6601  161.9255 C.ar    1  UNL1        0.1644
     23 S         139.4281  141.2230  161.7039 S.2     1  UNL1       -0.0540
     24 N         139.8476  143.8524  161.4691 N.pl3   1  UNL1       -0.2782
     25 H         139.4887  144.4391  160.7647 H       1  UNL1        0.1555
     26 C         141.1820  144.1507  162.0858 C.ar    1  UNL1        0.1336
     27 C         141.2755  145.0852  163.2555 C.ar    1  UNL1        0.0345
     28 C         142.6098  145.3836  163.8723 C.ar    1  UNL1        0.0045
     29 C         143.8506  144.7475  163.3195 C.ar    1  UNL1        0.0208
     30 C         143.7572  143.8130  162.1499 C.ar    1  UNL1        0.1003
     31 N         142.4228  143.5146  161.5331 N.ar    1  UNL1       -0.2290
@<TRIPOS>BOND
     1    11    12    2
     2    12    13   am
     3    13    15    1
     4    15    16    1
     5    16    17    1
     6    12     3    1
     7     3     4   ar
     8     4     5   ar
     9     5     1    1
    10     1    18    1
    11    18    19    1
    12    19    20   ar
    13    20    21   ar
    14    21    22   ar
    15    22    24    1
    16    24    26    1
    17    26    27   ar
    18    27    28   ar
    19    28    29   ar
    20    29    30   ar
    21    30    31   ar
    22    22    23   ar
    23     5     6   ar
    24     6     7    1
    25     6     8   ar
    26     8     9   ar
    27     9    10    1
    28    17    15    1
    29     9     3   ar
    30    23    19   ar
    31    31    26   ar
    32    13    14    1
    33     1     2    1
    34    24    25    1
@<TRIPOS>MOLECULE
*****
 31 34 0 0 0
SMALL
GASTEIGER

@<TRIPOS>ATOM
      1 N         140.2039  145.4276  163.5896 N.pl3   1  UNL1       -0.3269
      2 H         140.5600  146.1045  164.2095 H       1  UNL1        0.1472
      3 C         139.9899  141.9929  165.5661 C.ar    1  UNL1        0.0821
      4 C         140.5196  143.2917  165.0347 C.ar    1  UNL1        0.0234
      5 C         139.6742  144.1287  164.1211 C.ar    1  UNL1        0.0730
      6 C         138.2992  143.6669  163.7389 C.ar    1  UNL1        0.1554
      7 F         137.4539  144.5040  162.8252 F       1  UNL1       -0.2028
      8 C         137.7695  142.3681  164.2703 C.ar    1  UNL1        0.0607
      9 C         138.6149  141.5311  165.1839 C.ar    1  UNL1        0.1468
     10 F         138.0852  140.2321  165.7154 F       1  UNL1       -0.2039
     11 O         142.1207  140.5653  165.9808 O.2     1  UNL1       -0.2701
     12 C         140.8352  141.1557  166.4798 C.2     1  UNL1        0.2480
     13 N         140.3951  140.9091  167.8923 N.am    1  UNL1       -0.3024
     14 H         139.5514  141.2966  168.2198 H       1  UNL1        0.1497
     15 C         141.2404  140.0720  168.8060 C.3     1  UNL1        0.0720
     16 C         142.4525  139.2187  169.0355 C.3     1  UNL1        0.0213
     17 C         141.4925  139.4754  170.1590 C.3     1  UNL1        0.0213
     18 C         140.1910  145.6951  162.1137 C.3     1  UNL1        0.1225
     19 C         141.1486  144.9737  161.2124 C.ar    1  UNL1        0.0487
     20 C         141.2165  145.0967  159.7190 C.ar    1  UNL1        0.1047
     21 N         142.3163  144.2016  159.2297 N.ar    1  UNL1       -0.2227
     22 C         142.9280  143.5253  160.4208 C.ar    1  UNL1        0.1644
     23 S         142.2063  144.0025  161.6461 S.2     1  UNL1       -0.0540
     24 N         144.0623  142.5442  160.3916 N.pl3   1  UNL1       -0.2782
     25 H         144.6021  142.4401  159.5749 H       1  UNL1        0.1555
     26 C         144.3739  141.7218  161.6066 C.ar    1  UNL1        0.1336
     27 C         145.3757  142.2140  162.6087 C.ar    1  UNL1        0.0345
     28 C         145.6874  141.3916  163.8238 C.ar    1  UNL1        0.0045
     29 C         144.9974  140.0768  164.0367 C.ar    1  UNL1        0.0208
     30 C         143.9957  139.5846  163.0346 C.ar    1  UNL1        0.1003
     31 N         143.6840  140.4070  161.8195 N.ar    1  UNL1       -0.2290
@<TRIPOS>BOND
     1    11    12    2
     2    12    13   am
     3    13    15    1
     4    15    16    1
     5    16    17    1
     6    12     3    1
     7     3     4   ar
     8     4     5   ar
     9     5     1    1
    10     1    18    1
    11    18    19    1
    12    19    20   ar
    13    20    21   ar
    14    21    22   ar
    15    22    24    1
    16    24    26    1
    17    26    27   ar
    18    27    28   ar
    19    28    29   ar
    20    29    30   ar
    21    30    31   ar
    22    22    23   ar
    23     5     6   ar
    24     6     7    1
    25     6     8   ar
    26     8     9   ar
    27     9    10    1
    28    17    15    1
    29     9     3   ar
    30    23    19   ar
    31    31    26   ar
    32    13    14    1
    33     1     2    1
    34    24    25    1
@<TRIPOS>MOLECULE
*****
 31 34 0 0 0
SMALL
GASTEIGER

@<TRIPOS>ATOM
      1 N         142.2193  137.4124  162.5658 N.pl3   1  UNL1       -0.3269
      2 H         142.1822  136.4366  162.6912 H       1  UNL1        0.1472
      3 C         139.6471  139.2623  164.9558 C.ar    1  UNL1        0.0821
      4 C         140.7862  138.4029  164.4933 C.ar    1  UNL1        0.0234
      5 C         141.0801  138.2718  163.0283 C.ar    1  UNL1        0.0730
      6 C         140.2349  139.0001  162.0257 C.ar    1  UNL1        0.1554
      7 F         140.5289  138.8690  160.5606 F       1  UNL1       -0.2028
      8 C         139.0958  139.8595  162.4881 C.ar    1  UNL1        0.0607
      9 C         138.8019  139.9906  163.9531 C.ar    1  UNL1        0.1468
     10 F         137.6628  140.8500  164.4156 F       1  UNL1       -0.2039
     11 O         138.0763  138.8413  166.9819 O.2     1  UNL1       -0.2701
     12 C         139.3532  139.3934  166.4209 C.2     1  UNL1        0.2480
     13 N         140.3361  140.0766  167.3248 N.am    1  UNL1       -0.3024
     14 H         141.1741  140.4389  166.9565 H       1  UNL1        0.1497
     15 C         140.0421  140.2077  168.7899 C.3     1  UNL1        0.0720
     16 C         139.1662  140.7098  169.8992 C.3     1  UNL1        0.0213
     17 C         140.4089  139.9328  170.2182 C.3     1  UNL1        0.0213
     18 C         143.4148  138.0397  161.9122 C.3     1  UNL1        0.1225
     19 C         143.9599  139.3366  162.4328 C.ar    1  UNL1        0.0487
     20 C         144.7814  139.5122  163.6754 C.ar    1  UNL1        0.1047
     21 N         145.1084  140.9697  163.8128 N.ar    1  UNL1       -0.2227
     22 C         144.4889  141.6948  162.6550 C.ar    1  UNL1        0.1644
     23 S         143.7791  140.6855  161.8021 S.2     1  UNL1       -0.0540
     24 N         144.5658  143.1702  162.3957 N.pl3   1  UNL1       -0.2782
     25 H         145.4379  143.5962  162.2304 H       1  UNL1        0.1555
     26 C         143.3141  143.9966  162.3881 C.ar    1  UNL1        0.1336
     27 C         142.8384  144.6490  163.6523 C.ar    1  UNL1        0.0345
     28 C         141.5867  145.4754  163.6448 C.ar    1  UNL1        0.0045
     29 C         140.8106  145.6495  162.3731 C.ar    1  UNL1        0.0208
     30 C         141.2862  144.9972  161.1089 C.ar    1  UNL1        0.1003
     31 N         142.5380  144.1707  161.1164 N.ar    1  UNL1       -0.2290
@<TRIPOS>BOND
     1    11    12    2
     2    12    13   am
     3    13    15    1
     4    15    16    1
     5    16    17    1
     6    12     3    1
     7     3     4   ar
     8     4     5   ar
     9     5     1    1
    10     1    18    1
    11    18    19    1
    12    19    20   ar
    13    20    21   ar
    14    21    22   ar
    15    22    24    1
    16    24    26    1
    17    26    27   ar
    18    27    28   ar
    19    28    29   ar
    20    29    30   ar
    21    30    31   ar
    22    22    23   ar
    23     5     6   ar
    24     6     7    1
    25     6     8   ar
    26     8     9   ar
    27     9    10    1
    28    17    15    1
    29     9     3   ar
    30    23    19   ar
    31    31    26   ar
    32    13    14    1
    33     1     2    1
    34    24    25    1
@<TRIPOS>MOLECULE
*****
 31 34 0 0 0
SMALL
GASTEIGER

@<TRIPOS>ATOM
      1 N         137.2392  141.6160  163.8959 N.pl3   1  UNL1       -0.3269
      2 H         136.3094  141.6130  163.5723 H       1  UNL1        0.1472
      3 C         139.5966  138.9648  162.1173 C.ar    1  UNL1        0.0821
      4 C         138.7234  140.1651  162.3331 C.ar    1  UNL1        0.0234
      5 C         138.1125  140.4157  163.6800 C.ar    1  UNL1        0.0730
      6 C         138.3749  139.4659  164.8109 C.ar    1  UNL1        0.1554
      7 F         137.7640  139.7165  166.1579 F       1  UNL1       -0.2028
      8 C         139.2481  138.2656  164.5951 C.ar    1  UNL1        0.0607
      9 C         139.8590  138.0150  163.2482 C.ar    1  UNL1        0.1468
     10 F         140.7323  136.8146  163.0323 F       1  UNL1       -0.2039
     11 O         139.3296  138.3999  159.5954 O.2     1  UNL1       -0.2701
     12 C         140.2075  138.7142  160.7704 C.2     1  UNL1        0.2480
     13 N         141.6962  138.7778  160.5985 N.am    1  UNL1       -0.3024
     14 H         142.2724  138.9841  161.3697 H       1  UNL1        0.1497
     15 C         142.3071  138.5272  159.2516 C.3     1  UNL1        0.0720
     16 C         142.9921  139.0409  158.0200 C.3     1  UNL1        0.0213
     17 C         142.6803  137.5795  158.1504 C.3     1  UNL1        0.0213
     18 C         137.7826  142.8210  164.6049 C.3     1  UNL1        0.1225
     19 C         138.7485  143.7307  163.9053 C.ar    1  UNL1        0.0487
     20 C         138.4050  144.7311  162.8417 C.ar    1  UNL1        0.1047
     21 N         139.6716  145.4185  162.4255 N.ar    1  UNL1       -0.2227
     22 C         140.7979  144.8429  163.2319 C.ar    1  UNL1        0.1644
     23 S         140.2274  143.7998  164.1464 S.2     1  UNL1       -0.0540
     24 N         142.2413  145.2405  163.1398 N.pl3   1  UNL1       -0.2782
     25 H         142.4896  146.1931  163.1265 H       1  UNL1        0.1555
     26 C         143.3064  144.1869  163.0680 C.ar    1  UNL1        0.1336
     27 C         143.9010  143.6344  164.3294 C.ar    1  UNL1        0.0345
     28 C         144.9662  142.5807  164.2577 C.ar    1  UNL1        0.0045
     29 C         145.4368  142.0796  162.9246 C.ar    1  UNL1        0.0208
     30 C         144.8422  142.6321  161.6631 C.ar    1  UNL1        0.1003
     31 N         143.7770  143.6857  161.7348 N.ar    1  UNL1       -0.2290
@<TRIPOS>BOND
     1    11    12    2
     2    12    13   am
     3    13    15    1
     4    15    16    1
     5    16    17    1
     6    12     3    1
     7     3     4   ar
     8     4     5   ar
     9     5     1    1
    10     1    18    1
    11    18    19    1
    12    19    20   ar
    13    20    21   ar
    14    21    22   ar
    15    22    24    1
    16    24    26    1
    17    26    27   ar
    18    27    28   ar
    19    28    29   ar
    20    29    30   ar
    21    30    31   ar
    22    22    23   ar
    23     5     6   ar
    24     6     7    1
    25     6     8   ar
    26     8     9   ar
    27     9    10    1
    28    17    15    1
    29     9     3   ar
    30    23    19   ar
    31    31    26   ar
    32    13    14    1
    33     1     2    1
    34    24    25    1
