@<TRIPOS>MOLECULE
*****
 37 42 0 0 0
SMALL
GASTEIGER

@<TRIPOS>ATOM
      1 C         140.5517  145.2289  158.2484 C.ar    1  UNL1        0.2474
      2 N         141.5810  144.3727  158.9248 N.ar    1  UNL1       -0.2073
      3 C         141.4591  144.5833  160.4049 C.ar    1  UNL1        0.1147
      4 C         142.2113  144.0044  161.5664 C.ar    1  UNL1       -0.0039
      5 C         141.8588  144.4118  162.9662 C.ar    1  UNL1       -0.0231
      6 C         140.7543  145.3982  163.2047 C.ar    1  UNL1       -0.0013
      7 C         140.0021  145.9772  162.0433 C.ar    1  UNL1        0.0388
      8 C         140.3545  145.5698  160.6433 C.ar    1  UNL1        0.1645
      9 O         139.7937  145.9688  159.3105 O.2     1  UNL1       -0.4333
     10 C         142.4772  143.9593  164.2558 C.3     1  UNL1        0.0434
     11 C         143.6008  142.9874  164.4638 C.3     1  UNL1        0.0768
     12 N         144.3834  142.2283  163.4338 N.3     1  UNL1       -0.2720
     13 C         144.2359  142.2533  161.9413 C.3     1  UNL1        0.0769
     14 C         143.2692  143.0437  161.1102 C.3     1  UNL1        0.0450
     15 C         140.9113  146.7314  153.1992 C.3     1  UNL1        0.0540
     16 C         140.4862  146.0186  154.4487 C.ar    1  UNL1        0.0806
     17 C         141.0273  146.2570  155.8273 C.ar    1  UNL1        0.0399
     18 C         140.3209  145.3280  156.7696 C.ar    1  UNL1        0.1325
     19 N         139.3432  144.5154  155.9735 N.ar    1  UNL1       -0.2446
     20 C         138.4247  143.4612  156.5164 C.3     1  UNL1        0.1539
     21 N         139.4453  144.9422  154.5391 N.ar    1  UNL1       -0.1735
     22 C         145.4554  141.3245  163.9667 C.3     1  UNL1        0.0730
     23 C         145.2252  139.8436  164.0296 C.3     1  UNL1        0.0294
     24 C         144.4124  139.2575  165.1458 C.3     1  UNL1        0.0666
     25 S         143.0250  138.7537  164.8788 S.3     1  UNL1       -0.0756
     26 C         141.9085  139.7250  164.6340 C.ar    1  UNL1        0.1933
     27 N         141.1626  140.4937  165.6840 N.ar    1  UNL1       -0.1220
     28 N         140.1349  141.3419  164.9951 N.ar    1  UNL1       -0.1250
     29 C         140.2458  141.0973  163.5194 C.ar    1  UNL1        0.2029
     30 N         141.3419  140.0980  163.2961 N.ar    1  UNL1       -0.2860
     31 C         141.7923  139.5652  161.9682 C.3     1  UNL1        0.1341
     32 C         139.4076  141.7393  162.4539 C.ar    1  UNL1        0.1964
     33 O         139.5501  141.5314  160.9753 O.2     1  UNL1       -0.4283
     34 C         138.5103  142.3656  160.2874 C.ar    1  UNL1        0.2849
     35 N         137.7252  143.0891  161.3410 N.ar    1  UNL1       -0.2085
     36 C         138.2798  142.7021  162.6799 C.ar    1  UNL1        0.1001
     37 C         137.7920  143.1919  164.0112 C.3     1  UNL1        0.0556
@<TRIPOS>BOND
     1    15    16    1
     2    16    17   ar
     3    17    18   ar
     4    18     1    1
     5     1     2   ar
     6     2     3   ar
     7     3     4   ar
     8     4     5   ar
     9     5     6   ar
    10     6     7   ar
    11     7     8   ar
    12     8     9   ar
    13     5    10    1
    14    10    11    1
    15    11    12    1
    16    12    22    1
    17    22    23    1
    18    23    24    1
    19    24    25    1
    20    25    26    1
    21    26    27   ar
    22    27    28   ar
    23    28    29   ar
    24    29    32    1
    25    32    33   ar
    26    33    34   ar
    27    34    35   ar
    28    35    36   ar
    29    36    37    1
    30    29    30   ar
    31    30    31    1
    32    12    13    1
    33    13    14    1
    34    18    19   ar
    35    19    20    1
    36    19    21   ar
    37    21    16   ar
    38     9     1   ar
    39    30    26   ar
    40     8     3   ar
    41    36    32   ar
    42    14     4    1
@<TRIPOS>MOLECULE
*****
 37 42 0 0 0
SMALL
GASTEIGER

@<TRIPOS>ATOM
      1 C         140.4478  142.0103  160.4364 C.ar    1  UNL1        0.2474
      2 N         140.2832  142.0183  161.9273 N.ar    1  UNL1       -0.2073
      3 C         139.8453  140.6481  162.3526 C.ar    1  UNL1        0.1147
      4 C         139.5294  140.0683  163.6995 C.ar    1  UNL1       -0.0039
      5 C         139.1075  138.6339  163.8182 C.ar    1  UNL1       -0.0231
      6 C         139.0014  137.7791  162.5902 C.ar    1  UNL1       -0.0013
      7 C         139.3173  138.3588  161.2433 C.ar    1  UNL1        0.0388
      8 C         139.7392  139.7933  161.1245 C.ar    1  UNL1        0.1645
      9 O         140.1116  140.6353  159.9402 O.2     1  UNL1       -0.4333
     10 C         138.7497  137.8635  165.0547 C.3     1  UNL1        0.0434
     11 C         138.7254  138.3376  166.4776 C.3     1  UNL1        0.0768
     12 N         139.0530  139.6988  167.0155 N.3     1  UNL1       -0.2720
     13 C         139.4858  140.9224  166.2635 C.3     1  UNL1        0.0769
     14 C         139.6978  141.0869  164.7877 C.3     1  UNL1        0.0450
     15 C         140.3114  146.2301  157.2652 C.3     1  UNL1        0.0540
     16 C         140.8111  145.1129  158.1325 C.ar    1  UNL1        0.0806
     17 C         139.9621  144.0995  158.8413 C.ar    1  UNL1        0.0399
     18 C         140.8738  143.1733  159.5901 C.ar    1  UNL1        0.1325
     19 N         142.2862  143.6141  159.3442 N.ar    1  UNL1       -0.2446
     20 C         143.5208  142.9694  159.9012 C.3     1  UNL1        0.1539
     21 N         142.2476  144.8128  158.4433 N.ar    1  UNL1       -0.1735
     22 C         138.9319  139.8576  168.5022 C.3     1  UNL1        0.0730
     23 C         140.0511  140.4795  169.2838 C.3     1  UNL1        0.0294
     24 C         141.0778  139.6090  169.9457 C.3     1  UNL1        0.0666
     25 S         142.4450  139.4720  169.3443 S.3     1  UNL1       -0.0756
     26 C         142.6709  139.8310  167.9055 C.ar    1  UNL1        0.1933
     27 N         142.6671  138.8772  166.7477 N.ar    1  UNL1       -0.1220
     28 N         142.9340  139.6635  165.4985 N.ar    1  UNL1       -0.1250
     29 C         143.1028  141.1032  165.8842 C.ar    1  UNL1        0.2029
     30 N         142.9402  141.2067  167.3718 N.ar    1  UNL1       -0.2860
     31 C         143.0309  142.4651  168.1832 C.3     1  UNL1        0.1341
     32 C         143.3847  142.2398  164.9469 C.ar    1  UNL1        0.1964
     33 O         142.5287  143.4562  164.7535 O.2     1  UNL1       -0.4283
     34 C         143.1871  144.3278  163.7255 C.ar    1  UNL1        0.2849
     35 N         144.4501  143.6501  163.2835 N.ar    1  UNL1       -0.2085
     36 C         144.5723  142.3596  164.0384 C.ar    1  UNL1        0.1001
     37 C         145.6865  141.3638  163.9077 C.3     1  UNL1        0.0556
@<TRIPOS>BOND
     1    15    16    1
     2    16    17   ar
     3    17    18   ar
     4    18     1    1
     5     1     2   ar
     6     2     3   ar
     7     3     4   ar
     8     4     5   ar
     9     5     6   ar
    10     6     7   ar
    11     7     8   ar
    12     8     9   ar
    13     5    10    1
    14    10    11    1
    15    11    12    1
    16    12    22    1
    17    22    23    1
    18    23    24    1
    19    24    25    1
    20    25    26    1
    21    26    27   ar
    22    27    28   ar
    23    28    29   ar
    24    29    32    1
    25    32    33   ar
    26    33    34   ar
    27    34    35   ar
    28    35    36   ar
    29    36    37    1
    30    29    30   ar
    31    30    31    1
    32    12    13    1
    33    13    14    1
    34    18    19   ar
    35    19    20    1
    36    19    21   ar
    37    21    16   ar
    38     9     1   ar
    39    30    26   ar
    40     8     3   ar
    41    36    32   ar
    42    14     4    1
@<TRIPOS>MOLECULE
*****
 37 42 0 0 0
SMALL
GASTEIGER

@<TRIPOS>ATOM
      1 C         141.2456  141.6892  167.2300 C.ar    1  UNL1        0.2474
      2 N         141.0052  141.2346  165.8209 N.ar    1  UNL1       -0.2073
      3 C         142.1652  141.6859  164.9839 C.ar    1  UNL1        0.1147
      4 C         142.4735  141.5238  163.5249 C.ar    1  UNL1       -0.0039
      5 C         143.7391  142.0951  162.9578 C.ar    1  UNL1       -0.0231
      6 C         144.6966  142.8286  163.8495 C.ar    1  UNL1       -0.0013
      7 C         144.3883  142.9908  165.3086 C.ar    1  UNL1        0.0388
      8 C         143.1227  142.4195  165.8758 C.ar    1  UNL1        0.1645
      9 O         142.5543  142.4215  167.2639 O.2     1  UNL1       -0.4333
     10 C         144.2353  142.0470  161.5430 C.3     1  UNL1        0.0434
     11 C         143.5882  141.4157  160.3459 C.3     1  UNL1        0.0768
     12 N         142.2853  140.6766  160.2681 N.3     1  UNL1       -0.2720
     13 C         141.3076  140.3862  161.3680 C.3     1  UNL1        0.0769
     14 C         141.3913  140.7632  162.8174 C.3     1  UNL1        0.0450
     15 C         137.7181  139.4881  170.4846 C.3     1  UNL1        0.0540
     16 C         138.7155  140.4412  169.8958 C.ar    1  UNL1        0.0806
     17 C         139.4419  140.2653  168.5953 C.ar    1  UNL1        0.0399
     18 C         140.3369  141.4530  168.3999 C.ar    1  UNL1        0.1325
     19 N         140.1638  142.3630  169.5796 N.ar    1  UNL1       -0.2446
     20 C         140.8689  143.6690  169.7967 C.3     1  UNL1        0.1539
     21 N         139.1617  141.7377  170.5042 N.ar    1  UNL1       -0.1735
     22 C         141.9105  140.1595  158.9109 C.3     1  UNL1        0.0730
     23 C         142.2165  140.9722  157.6877 C.3     1  UNL1        0.0294
     24 C         141.1223  141.7335  156.9999 C.3     1  UNL1        0.0666
     25 S         140.9269  143.1921  157.2897 S.3     1  UNL1       -0.0756
     26 C         141.0743  143.7046  158.6917 C.ar    1  UNL1        0.1933
     27 N         142.2061  144.5414  159.2101 N.ar    1  UNL1       -0.1220
     28 N         141.9472  144.8243  160.6602 N.ar    1  UNL1       -0.1250
     29 C         140.6553  144.1623  161.0380 C.ar    1  UNL1        0.2029
     30 N         140.1158  143.4703  159.8214 N.ar    1  UNL1       -0.2860
     31 C         138.8415  142.6824  159.7476 C.3     1  UNL1        0.1341
     32 C         140.0152  144.1878  162.3944 C.ar    1  UNL1        0.1964
     33 O         138.6528  143.6618  162.7364 O.2     1  UNL1       -0.4283
     34 C         138.4207  143.8927  164.2002 C.ar    1  UNL1        0.2849
     35 N         139.6397  144.5616  164.7629 N.ar    1  UNL1       -0.2085
     36 C         140.6251  144.7440  163.6468 C.ar    1  UNL1        0.1001
     37 C         141.9823  145.3723  163.7629 C.3     1  UNL1        0.0556
@<TRIPOS>BOND
     1    15    16    1
     2    16    17   ar
     3    17    18   ar
     4    18     1    1
     5     1     2   ar
     6     2     3   ar
     7     3     4   ar
     8     4     5   ar
     9     5     6   ar
    10     6     7   ar
    11     7     8   ar
    12     8     9   ar
    13     5    10    1
    14    10    11    1
    15    11    12    1
    16    12    22    1
    17    22    23    1
    18    23    24    1
    19    24    25    1
    20    25    26    1
    21    26    27   ar
    22    27    28   ar
    23    28    29   ar
    24    29    32    1
    25    32    33   ar
    26    33    34   ar
    27    34    35   ar
    28    35    36   ar
    29    36    37    1
    30    29    30   ar
    31    30    31    1
    32    12    13    1
    33    13    14    1
    34    18    19   ar
    35    19    20    1
    36    19    21   ar
    37    21    16   ar
    38     9     1   ar
    39    30    26   ar
    40     8     3   ar
    41    36    32   ar
    42    14     4    1
@<TRIPOS>MOLECULE
*****
 37 42 0 0 0
SMALL
GASTEIGER

@<TRIPOS>ATOM
      1 C         140.8803  141.8726  167.0524 C.ar    1  UNL1        0.2474
      2 N         141.2489  141.5378  165.6375 N.ar    1  UNL1       -0.2073
      3 C         140.6560  142.5862  164.7435 C.ar    1  UNL1        0.1147
      4 C         140.6904  142.7729  163.2555 C.ar    1  UNL1       -0.0039
      5 C         139.9898  143.9424  162.6301 C.ar    1  UNL1       -0.0231
      6 C         139.2547  144.9252  163.4924 C.ar    1  UNL1       -0.0013
      7 C         139.2202  144.7385  164.9803 C.ar    1  UNL1        0.0388
      8 C         139.9208  143.5690  165.6059 C.ar    1  UNL1        0.1645
      9 O         140.0595  143.1280  167.0329 O.2     1  UNL1       -0.4333
     10 C         139.9003  144.3123  161.1791 C.3     1  UNL1        0.0434
     11 C         140.4895  143.6039  159.9953 C.3     1  UNL1        0.0768
     12 N         141.3134  142.3508  159.9702 N.3     1  UNL1       -0.2720
     13 C         141.7520  141.4965  161.1225 C.3     1  UNL1        0.0769
     14 C         141.4747  141.6844  162.5847 C.3     1  UNL1        0.0450
     15 C         142.9649  138.1803  170.1992 C.3     1  UNL1        0.0540
     16 C         142.2230  139.3924  169.7190 C.ar    1  UNL1        0.0806
     17 C         142.0836  139.8329  168.2920 C.ar    1  UNL1        0.0399
     18 C         141.2649  141.0896  168.2727 C.ar    1  UNL1        0.1325
     19 N         140.8982  141.4257  169.6877 N.ar    1  UNL1       -0.2446
     20 C         140.0826  142.6039  170.1311 C.3     1  UNL1        0.1539
     21 N         141.4904  140.3769  170.5817 N.ar    1  UNL1       -0.1735
     22 C         141.7578  141.8912  158.6132 C.3     1  UNL1        0.0730
     23 C         142.1296  140.4549  158.3924 C.3     1  UNL1        0.0294
     24 C         141.2997  139.5962  157.4846 C.3     1  UNL1        0.0666
     25 S         140.3026  138.6371  158.0641 S.3     1  UNL1       -0.0756
     26 C         139.4525  139.0515  159.2284 C.ar    1  UNL1        0.1933
     27 N         138.1605  139.8095  159.1511 N.ar    1  UNL1       -0.1220
     28 N         137.6546  140.0071  160.5494 N.ar    1  UNL1       -0.1250
     29 C         138.6340  139.3711  161.4908 C.ar    1  UNL1        0.2029
     30 N         139.7452  138.7805  160.6744 N.ar    1  UNL1       -0.2860
     31 C         140.9393  138.0476  161.2101 C.3     1  UNL1        0.1341
     32 C         138.5219  139.3325  162.9861 C.ar    1  UNL1        0.1964
     33 O         139.0101  138.2304  163.8787 O.2     1  UNL1       -0.4283
     34 C         138.6918  138.6059  165.2956 C.ar    1  UNL1        0.2849
     35 N         138.0068  139.9403  165.2787 N.ar    1  UNL1       -0.2085
     36 C         137.9018  140.3893  163.8513 C.ar    1  UNL1        0.1001
     37 C         137.2849  141.6703  163.3732 C.3     1  UNL1        0.0556
@<TRIPOS>BOND
     1    15    16    1
     2    16    17   ar
     3    17    18   ar
     4    18     1    1
     5     1     2   ar
     6     2     3   ar
     7     3     4   ar
     8     4     5   ar
     9     5     6   ar
    10     6     7   ar
    11     7     8   ar
    12     8     9   ar
    13     5    10    1
    14    10    11    1
    15    11    12    1
    16    12    22    1
    17    22    23    1
    18    23    24    1
    19    24    25    1
    20    25    26    1
    21    26    27   ar
    22    27    28   ar
    23    28    29   ar
    24    29    32    1
    25    32    33   ar
    26    33    34   ar
    27    34    35   ar
    28    35    36   ar
    29    36    37    1
    30    29    30   ar
    31    30    31    1
    32    12    13    1
    33    13    14    1
    34    18    19   ar
    35    19    20    1
    36    19    21   ar
    37    21    16   ar
    38     9     1   ar
    39    30    26   ar
    40     8     3   ar
    41    36    32   ar
    42    14     4    1
@<TRIPOS>MOLECULE
*****
 37 42 0 0 0
SMALL
GASTEIGER

@<TRIPOS>ATOM
      1 C         141.1534  142.3344  166.7762 C.ar    1  UNL1        0.2474
      2 N         141.8496  142.2917  165.4482 N.ar    1  UNL1       -0.2073
      3 C         141.1088  143.1948  164.5072 C.ar    1  UNL1        0.1147
      4 C         141.3359  143.5478  163.0671 C.ar    1  UNL1       -0.0039
      5 C         140.4090  144.5014  162.3735 C.ar    1  UNL1       -0.0231
      6 C         139.2549  145.1023  163.1198 C.ar    1  UNL1       -0.0013
      7 C         139.0277  144.7494  164.5600 C.ar    1  UNL1        0.0388
      8 C         139.9547  143.7957  165.2537 C.ar    1  UNL1        0.1645
      9 O         139.9823  143.2639  166.6559 O.2     1  UNL1       -0.4333
     10 C         140.4545  144.9842  160.9540 C.3     1  UNL1        0.0434
     11 C         141.4383  144.6324  159.8776 C.3     1  UNL1        0.0768
     12 N         142.6193  143.7111  159.9549 N.3     1  UNL1       -0.2720
     13 C         143.1085  142.9138  161.1276 C.3     1  UNL1        0.0769
     14 C         142.5373  142.8412  162.5127 C.3     1  UNL1        0.0450
     15 C         142.8164  138.4900  169.9912 C.3     1  UNL1        0.0540
     16 C         142.3218  139.8129  169.4859 C.ar    1  UNL1        0.0806
     17 C         142.0258  140.1558  168.0559 C.ar    1  UNL1        0.0399
     18 C         141.5574  141.5800  168.0081 C.ar    1  UNL1        0.1325
     19 N         141.5640  142.1173  169.4085 N.ar    1  UNL1       -0.2446
     20 C         141.1678  143.5034  169.8229 C.3     1  UNL1        0.1539
     21 N         142.0365  141.0253  170.3219 N.ar    1  UNL1       -0.1735
     22 C         143.4167  143.5679  158.6925 C.3     1  UNL1        0.0730
     23 C         143.0681  142.4962  157.7025 C.3     1  UNL1        0.0294
     24 C         141.7473  141.7912  157.7943 C.3     1  UNL1        0.0666
     25 S         141.7022  140.3108  158.0311 S.3     1  UNL1       -0.0756
     26 C         142.4330  139.7152  159.1978 C.ar    1  UNL1        0.1933
     27 N         143.8031  139.1058  159.1620 N.ar    1  UNL1       -0.1220
     28 N         144.1390  138.6384  160.5472 N.ar    1  UNL1       -0.1250
     29 C         142.9763  138.9591  161.4391 C.ar    1  UNL1        0.2029
     30 N         141.9219  139.6246  160.6051 N.ar    1  UNL1       -0.2860
     31 C         140.5904  140.1135  161.0929 C.3     1  UNL1        0.1341
     32 C         142.8842  138.6657  162.9072 C.ar    1  UNL1        0.1964
     33 O         141.8657  137.7850  163.5682 O.2     1  UNL1       -0.4283
     34 C         142.1464  137.7765  165.0417 C.ar    1  UNL1        0.2849
     35 N         143.3384  138.6520  165.2914 N.ar    1  UNL1       -0.2085
     36 C         143.7944  139.2016  163.9723 C.ar    1  UNL1        0.1001
     37 C         144.9567  140.1249  163.7562 C.3     1  UNL1        0.0556
@<TRIPOS>BOND
     1    15    16    1
     2    16    17   ar
     3    17    18   ar
     4    18     1    1
     5     1     2   ar
     6     2     3   ar
     7     3     4   ar
     8     4     5   ar
     9     5     6   ar
    10     6     7   ar
    11     7     8   ar
    12     8     9   ar
    13     5    10    1
    14    10    11    1
    15    11    12    1
    16    12    22    1
    17    22    23    1
    18    23    24    1
    19    24    25    1
    20    25    26    1
    21    26    27   ar
    22    27    28   ar
    23    28    29   ar
    24    29    32    1
    25    32    33   ar
    26    33    34   ar
    27    34    35   ar
    28    35    36   ar
    29    36    37    1
    30    29    30   ar
    31    30    31    1
    32    12    13    1
    33    13    14    1
    34    18    19   ar
    35    19    20    1
    36    19    21   ar
    37    21    16   ar
    38     9     1   ar
    39    30    26   ar
    40     8     3   ar
    41    36    32   ar
    42    14     4    1
@<TRIPOS>MOLECULE
*****
 37 42 0 0 0
SMALL
GASTEIGER

@<TRIPOS>ATOM
      1 C         140.1889  140.6235  167.0143 C.ar    1  UNL1        0.2474
      2 N         140.0072  141.3409  165.7095 N.ar    1  UNL1       -0.2073
      3 C         139.5653  140.3372  164.6863 C.ar    1  UNL1        0.1147
      4 C         139.2343  140.4684  163.2291 C.ar    1  UNL1       -0.0039
      5 C         138.8119  139.2620  162.4444 C.ar    1  UNL1       -0.0231
      6 C         138.7204  137.9242  163.1166 C.ar    1  UNL1       -0.0013
      7 C         139.0514  137.7929  164.5737 C.ar    1  UNL1        0.0388
      8 C         139.4738  138.9994  165.3586 C.ar    1  UNL1        0.1645
      9 O         139.8592  139.1764  166.7974 O.2     1  UNL1       -0.4333
     10 C         138.4404  139.1728  160.9938 C.3     1  UNL1        0.0434
     11 C         138.3996  140.2683  159.9698 C.3     1  UNL1        0.0768
     12 N         138.7202  141.7232  160.1435 N.3     1  UNL1       -0.2720
     13 C         139.1608  142.4422  161.3840 C.3     1  UNL1        0.0769
     14 C         139.3896  141.8838  162.7572 C.3     1  UNL1        0.0450
     15 C         142.9309  143.3682  170.5960 C.3     1  UNL1        0.0540
     16 C         141.8842  142.5059  169.9550 C.ar    1  UNL1        0.0806
     17 C         141.8358  142.1048  168.5104 C.ar    1  UNL1        0.0399
     18 C         140.6239  141.2443  168.3087 C.ar    1  UNL1        0.1325
     19 N         139.9233  141.1135  169.6285 N.ar    1  UNL1       -0.2446
     20 C         138.6648  140.3390  169.8857 C.3     1  UNL1        0.1539
     21 N         140.7022  141.8932  170.6460 N.ar    1  UNL1       -0.1735
     22 C         138.5819  142.5713  158.9140 C.3     1  UNL1        0.0730
     23 C         139.5466  143.6924  158.6638 C.3     1  UNL1        0.0294
     24 C         140.9040  143.4012  158.0958 C.3     1  UNL1        0.0666
     25 S         142.1305  143.9428  158.7683 S.3     1  UNL1       -0.0756
     26 C         142.4945  143.4818  160.1485 C.ar    1  UNL1        0.1933
     27 N         142.6869  144.3599  161.3493 N.ar    1  UNL1       -0.1220
     28 N         143.0414  143.4826  162.5132 N.ar    1  UNL1       -0.1250
     29 C         143.0680  142.0622  162.0317 C.ar    1  UNL1        0.2029
     30 N         142.7300  142.0617  160.5702 N.ar    1  UNL1       -0.2860
     31 C         142.6428  140.8533  159.6859 C.3     1  UNL1        0.1341
     32 C         143.3781  140.8544  162.8653 C.ar    1  UNL1        0.1964
     33 O         142.4798  139.6709  163.0713 O.2     1  UNL1       -0.4283
     34 C         143.1875  138.7030  163.9726 C.ar    1  UNL1        0.2849
     35 N         144.5232  139.2883  164.3237 N.ar    1  UNL1       -0.2085
     36 C         144.6410  140.6179  163.6393 C.ar    1  UNL1        0.1001
     37 C         145.8156  141.5478  163.7157 C.3     1  UNL1        0.0556
@<TRIPOS>BOND
     1    15    16    1
     2    16    17   ar
     3    17    18   ar
     4    18     1    1
     5     1     2   ar
     6     2     3   ar
     7     3     4   ar
     8     4     5   ar
     9     5     6   ar
    10     6     7   ar
    11     7     8   ar
    12     8     9   ar
    13     5    10    1
    14    10    11    1
    15    11    12    1
    16    12    22    1
    17    22    23    1
    18    23    24    1
    19    24    25    1
    20    25    26    1
    21    26    27   ar
    22    27    28   ar
    23    28    29   ar
    24    29    32    1
    25    32    33   ar
    26    33    34   ar
    27    34    35   ar
    28    35    36   ar
    29    36    37    1
    30    29    30   ar
    31    30    31    1
    32    12    13    1
    33    13    14    1
    34    18    19   ar
    35    19    20    1
    36    19    21   ar
    37    21    16   ar
    38     9     1   ar
    39    30    26   ar
    40     8     3   ar
    41    36    32   ar
    42    14     4    1
@<TRIPOS>MOLECULE
*****
 37 42 0 0 0
SMALL
GASTEIGER

@<TRIPOS>ATOM
      1 C         140.5946  144.5834  159.5528 C.ar    1  UNL1        0.2474
      2 N         139.8793  143.5876  160.4169 N.ar    1  UNL1       -0.2073
      3 C         140.5405  143.5827  161.7632 C.ar    1  UNL1        0.1147
      4 C         140.2644  142.8025  163.0143 C.ar    1  UNL1       -0.0039
      5 C         141.1123  143.0150  164.2332 C.ar    1  UNL1       -0.0231
      6 C         142.2364  144.0077  164.2012 C.ar    1  UNL1       -0.0013
      7 C         142.5126  144.7879  162.9502 C.ar    1  UNL1        0.0388
      8 C         141.6647  144.5754  161.7312 C.ar    1  UNL1        0.1645
      9 O         141.6980  145.1939  160.3650 O.2     1  UNL1       -0.4333
     10 C         141.0089  142.3473  165.5724 C.3     1  UNL1        0.0434
     11 C         140.0320  141.3020  166.0234 C.3     1  UNL1        0.0768
     12 N         138.9174  140.6665  165.2465 N.3     1  UNL1       -0.2720
     13 C         138.5042  140.9191  163.8269 C.3     1  UNL1        0.0769
     14 C         139.1037  141.8698  162.8334 C.3     1  UNL1        0.0450
     15 C         139.5761  147.2730  155.1244 C.3     1  UNL1        0.0540
     16 C         139.7964  146.1474  156.0912 C.ar    1  UNL1        0.0806
     17 C         140.1349  146.2880  157.5458 C.ar    1  UNL1        0.0399
     18 C         140.2645  144.9112  158.1267 C.ar    1  UNL1        0.1325
     19 N         140.0061  143.9197  157.0313 N.ar    1  UNL1       -0.2446
     20 C         140.0324  142.4263  157.1695 C.3     1  UNL1        0.1539
     21 N         139.7168  144.6837  155.7732 N.ar    1  UNL1       -0.1735
     22 C         138.1090  139.6430  165.9873 C.3     1  UNL1        0.0730
     23 C         138.5041  138.1967  165.9390 C.3     1  UNL1        0.0294
     24 C         138.9955  137.5959  164.6554 C.3     1  UNL1        0.0666
     25 S         140.4314  137.1832  164.5219 S.3     1  UNL1       -0.0756
     26 C         141.4939  138.2213  164.3140 C.ar    1  UNL1        0.1933
     27 N         142.4954  138.6746  165.3346 N.ar    1  UNL1       -0.1220
     28 N         143.3620  139.7219  164.7005 N.ar    1  UNL1       -0.1250
     29 C         142.8961  139.9160  163.2880 C.ar    1  UNL1        0.2029
     30 N         141.7415  138.9885  163.0491 N.ar    1  UNL1       -0.2860
     31 C         140.9701  138.8523  161.7699 C.3     1  UNL1        0.1341
     32 C         143.4818  140.8699  162.2896 C.ar    1  UNL1        0.1964
     33 O         142.9417  141.1539  160.9194 O.2     1  UNL1       -0.4283
     34 C         143.8366  142.1669  160.2690 C.ar    1  UNL1        0.2849
     35 N         144.9299  142.5090  161.2373 N.ar    1  UNL1       -0.2085
     36 C         144.7106  141.7075  162.4861 C.ar    1  UNL1        0.1001
     37 C         145.5694  141.7381  163.7156 C.3     1  UNL1        0.0556
@<TRIPOS>BOND
     1    15    16    1
     2    16    17   ar
     3    17    18   ar
     4    18     1    1
     5     1     2   ar
     6     2     3   ar
     7     3     4   ar
     8     4     5   ar
     9     5     6   ar
    10     6     7   ar
    11     7     8   ar
    12     8     9   ar
    13     5    10    1
    14    10    11    1
    15    11    12    1
    16    12    22    1
    17    22    23    1
    18    23    24    1
    19    24    25    1
    20    25    26    1
    21    26    27   ar
    22    27    28   ar
    23    28    29   ar
    24    29    32    1
    25    32    33   ar
    26    33    34   ar
    27    34    35   ar
    28    35    36   ar
    29    36    37    1
    30    29    30   ar
    31    30    31    1
    32    12    13    1
    33    13    14    1
    34    18    19   ar
    35    19    20    1
    36    19    21   ar
    37    21    16   ar
    38     9     1   ar
    39    30    26   ar
    40     8     3   ar
    41    36    32   ar
    42    14     4    1
@<TRIPOS>MOLECULE
*****
 37 42 0 0 0
SMALL
GASTEIGER

@<TRIPOS>ATOM
      1 C         140.6759  140.7025  166.2607 C.ar    1  UNL1        0.2474
      2 N         141.2410  141.1198  164.9354 N.ar    1  UNL1       -0.2073
      3 C         140.7775  140.1352  163.9031 C.ar    1  UNL1        0.1147
      4 C         141.0208  140.0402  162.4260 C.ar    1  UNL1       -0.0039
      5 C         140.4125  138.9194  161.6363 C.ar    1  UNL1       -0.0231
      6 C         139.5609  137.8936  162.3236 C.ar    1  UNL1       -0.0013
      7 C         139.3175  137.9886  163.8007 C.ar    1  UNL1        0.0388
      8 C         139.9258  139.1094  164.5905 C.ar    1  UNL1        0.1645
      9 O         139.8630  139.4600  166.0475 O.2     1  UNL1       -0.4333
     10 C         140.5275  138.6407  160.1669 C.3     1  UNL1        0.0434
     11 C         141.2793  139.4141  159.1243 C.3     1  UNL1        0.0768
     12 N         142.1016  140.6570  159.2937 N.3     1  UNL1       -0.2720
     13 C         142.3754  141.4337  160.5475 C.3     1  UNL1        0.0769
     14 C         141.8944  141.1592  161.9415 C.3     1  UNL1        0.0450
     15 C         140.4792  144.3060  170.1153 C.3     1  UNL1        0.0540
     16 C         140.7962  143.0608  169.3412 C.ar    1  UNL1        0.0806
     17 C         140.3396  142.7493  167.9468 C.ar    1  UNL1        0.0399
     18 C         140.8866  141.4045  167.5696 C.ar    1  UNL1        0.1325
     19 N         141.6812  140.8849  168.7308 N.ar    1  UNL1       -0.2446
     20 C         142.4047  139.5721  168.7872 C.3     1  UNL1        0.1539
     21 N         141.6254  141.9085  169.8258 N.ar    1  UNL1       -0.1735
     22 C         142.7338  141.1944  158.0441 C.3     1  UNL1        0.0730
     23 C         141.8746  141.5984  156.8828 C.3     1  UNL1        0.0294
     24 C         141.2365  142.9557  156.8582 C.3     1  UNL1        0.0666
     25 S         139.9638  143.1999  157.6134 S.3     1  UNL1       -0.0756
     26 C         139.9974  143.9285  158.9242 C.ar    1  UNL1        0.1933
     27 N         140.6413  145.2595  159.1768 N.ar    1  UNL1       -0.1220
     28 N         140.4349  145.6076  160.6212 N.ar    1  UNL1       -0.1250
     29 C         139.6636  144.4917  161.2613 C.ar    1  UNL1        0.2029
     30 N         139.3932  143.4539  160.2125 N.ar    1  UNL1       -0.2860
     31 C         138.6491  142.1675  160.4162 C.3     1  UNL1        0.1341
     32 C         139.2374  144.4252  162.6979 C.ar    1  UNL1        0.1964
     33 O         137.8289  144.2847  163.1941 O.2     1  UNL1       -0.4283
     34 C         137.8659  144.2602  164.6935 C.ar    1  UNL1        0.2849
     35 N         139.2973  144.3856  165.1239 N.ar    1  UNL1       -0.2085
     36 C         140.1450  144.4876  163.8906 C.ar    1  UNL1        0.1001
     37 C         141.6381  144.6273  163.8560 C.3     1  UNL1        0.0556
@<TRIPOS>BOND
     1    15    16    1
     2    16    17   ar
     3    17    18   ar
     4    18     1    1
     5     1     2   ar
     6     2     3   ar
     7     3     4   ar
     8     4     5   ar
     9     5     6   ar
    10     6     7   ar
    11     7     8   ar
    12     8     9   ar
    13     5    10    1
    14    10    11    1
    15    11    12    1
    16    12    22    1
    17    22    23    1
    18    23    24    1
    19    24    25    1
    20    25    26    1
    21    26    27   ar
    22    27    28   ar
    23    28    29   ar
    24    29    32    1
    25    32    33   ar
    26    33    34   ar
    27    34    35   ar
    28    35    36   ar
    29    36    37    1
    30    29    30   ar
    31    30    31    1
    32    12    13    1
    33    13    14    1
    34    18    19   ar
    35    19    20    1
    36    19    21   ar
    37    21    16   ar
    38     9     1   ar
    39    30    26   ar
    40     8     3   ar
    41    36    32   ar
    42    14     4    1
@<TRIPOS>MOLECULE
*****
 37 42 0 0 0
SMALL
GASTEIGER

@<TRIPOS>ATOM
      1 C         141.2217  141.9764  167.1904 C.ar    1  UNL1        0.2474
      2 N         140.7831  141.9827  165.7560 N.ar    1  UNL1       -0.2073
      3 C         141.9618  142.3685  164.9125 C.ar    1  UNL1        0.1147
      4 C         142.1233  142.5384  163.4308 C.ar    1  UNL1       -0.0039
      5 C         143.4518  142.9404  162.8624 C.ar    1  UNL1       -0.0231
      6 C         144.6191  143.1725  163.7754 C.ar    1  UNL1       -0.0013
      7 C         144.4577  143.0026  165.2570 C.ar    1  UNL1        0.0388
      8 C         143.1291  142.6006  165.8256 C.ar    1  UNL1        0.1645
      9 O         142.6717  142.3583  167.2334 O.2     1  UNL1       -0.4333
     10 C         143.8262  143.1630  161.4270 C.3     1  UNL1        0.0434
     11 C         142.9643  143.0385  160.2056 C.3     1  UNL1        0.0768
     12 N         141.5154  142.6607  160.1180 N.3     1  UNL1       -0.2720
     13 C         140.5703  142.3141  161.2300 C.3     1  UNL1        0.0769
     14 C         140.8408  142.2597  162.7044 C.3     1  UNL1        0.0450
     15 C         137.9059  139.4672  170.4446 C.3     1  UNL1        0.0540
     16 C         138.8374  140.4928  169.8698 C.ar    1  UNL1        0.0806
     17 C         139.5317  140.4081  168.5429 C.ar    1  UNL1        0.0399
     18 C         140.3615  141.6462  168.3741 C.ar    1  UNL1        0.1325
     19 N         140.1801  142.4961  169.5966 N.ar    1  UNL1       -0.2446
     20 C         140.8270  143.8255  169.8502 C.3     1  UNL1        0.1539
     21 N         139.2381  141.7834  170.5211 N.ar    1  UNL1       -0.1735
     22 C         140.9347  142.6248  158.7354 C.3     1  UNL1        0.0730
     23 C         141.1606  141.4295  157.8577 C.3     1  UNL1        0.0294
     24 C         140.3000  140.2109  158.0140 C.3     1  UNL1        0.0666
     25 S         140.8753  138.9569  158.6025 S.3     1  UNL1       -0.0756
     26 C         140.7306  138.6821  160.0700 C.ar    1  UNL1        0.1933
     27 N         139.5237  138.0984  160.7428 N.ar    1  UNL1       -0.1220
     28 N         139.8145  137.9983  162.2110 N.ar    1  UNL1       -0.1250
     29 C         141.2011  138.5200  162.4454 C.ar    1  UNL1        0.2029
     30 N         141.7673  138.9427  161.1222 N.ar    1  UNL1       -0.2860
     31 C         143.1309  139.5238  160.8918 C.3     1  UNL1        0.1341
     32 C         141.8991  138.6044  163.7705 C.ar    1  UNL1        0.1964
     33 O         143.3819  138.6835  163.9825 O.2     1  UNL1       -0.4283
     34 C         143.6360  138.7525  165.4592 C.ar    1  UNL1        0.2849
     35 N         142.3102  138.7160  166.1599 N.ar    1  UNL1       -0.2085
     36 C         141.2367  138.6245  165.1162 C.ar    1  UNL1        0.1001
     37 C         139.7601  138.5637  165.3731 C.3     1  UNL1        0.0556
@<TRIPOS>BOND
     1    15    16    1
     2    16    17   ar
     3    17    18   ar
     4    18     1    1
     5     1     2   ar
     6     2     3   ar
     7     3     4   ar
     8     4     5   ar
     9     5     6   ar
    10     6     7   ar
    11     7     8   ar
    12     8     9   ar
    13     5    10    1
    14    10    11    1
    15    11    12    1
    16    12    22    1
    17    22    23    1
    18    23    24    1
    19    24    25    1
    20    25    26    1
    21    26    27   ar
    22    27    28   ar
    23    28    29   ar
    24    29    32    1
    25    32    33   ar
    26    33    34   ar
    27    34    35   ar
    28    35    36   ar
    29    36    37    1
    30    29    30   ar
    31    30    31    1
    32    12    13    1
    33    13    14    1
    34    18    19   ar
    35    19    20    1
    36    19    21   ar
    37    21    16   ar
    38     9     1   ar
    39    30    26   ar
    40     8     3   ar
    41    36    32   ar
    42    14     4    1
