@<TRIPOS>MOLECULE
*****
 31 35 0 0 0
SMALL
GASTEIGER

@<TRIPOS>ATOM
      1 C         142.6883  143.5046  161.7999 C.ar    1  UNL1        0.1543
      2 N         143.5939  144.6705  162.0652 N.ar    1  UNL1       -0.2073
      3 C         143.9213  145.0598  163.4763 C.ar    1  UNL1        0.2015
      4 N         143.3432  144.2832  164.6220 N.ar    1  UNL1       -0.2045
      5 C         142.4376  143.1172  164.3566 C.ar    1  UNL1        0.1711
      6 C         142.1102  142.7279  162.9456 C.ar    1  UNL1        0.1487
      7 N         141.1943  141.5409  162.9928 N.ar    1  UNL1       -0.2220
      8 C         140.9557  141.1966  164.4331 C.ar    1  UNL1        0.1497
      9 N         141.7241  142.1709  165.2760 N.ar    1  UNL1       -0.2753
     10 C         140.0991  140.0750  164.9414 C.ar    1  UNL1        0.0451
     11 C         138.8096  140.3762  165.6461 C.ar    1  UNL1        0.0047
     12 C         137.9531  139.2546  166.1544 C.ar    1  UNL1        0.0115
     13 C         138.3860  137.8319  165.9579 C.ar    1  UNL1        0.0585
     14 CL        137.5293  136.7103  166.4662 Cl      1  UNL1       -0.0822
     15 C         139.6754  137.5308  165.2532 C.ar    1  UNL1        0.0229
     16 C         140.5319  138.6524  164.7450 C.ar    1  UNL1        0.0614
     17 CL        141.8214  138.3513  164.0402 Cl      1  UNL1       -0.0821
     18 C         141.3783  141.9471  156.1555 C.3     1  UNL1        0.0897
     19 N         141.7058  142.3365  157.5666 N.3     1  UNL1       -0.2686
     20 C         143.0859  142.1059  158.1071 C.3     1  UNL1        0.0939
     21 C         143.4134  142.4952  159.5183 C.3     1  UNL1        0.1095
     22 N         142.3608  143.1152  160.3887 N.pl3   1  UNL1       -0.2891
     23 C         140.9808  143.3458  159.8481 C.3     1  UNL1        0.1095
     24 C         140.6533  142.9565  158.4371 C.3     1  UNL1        0.0939
     25 C         141.7709  142.1946  166.7751 C.ar    1  UNL1        0.0668
     26 C         142.9598  141.6338  167.4974 C.ar    1  UNL1        0.0185
     27 C         143.0066  141.6575  168.9965 C.ar    1  UNL1        0.0129
     28 C         141.8643  142.2420  169.7733 C.ar    1  UNL1        0.0578
     29 CL        141.9110  142.2658  171.2724 Cl      1  UNL1       -0.0822
     30 C         140.6753  142.8028  169.0510 C.ar    1  UNL1        0.0129
     31 C         140.6286  142.7791  167.5519 C.ar    1  UNL1        0.0185
@<TRIPOS>BOND
     1    18    19    1
     2    19    20    1
     3    20    21    1
     4    21    22    1
     5    22     1    1
     6     1     2   ar
     7     2     3   ar
     8     3     4   ar
     9     4     5   ar
    10     5     6   ar
    11     6     7   ar
    12     7     8   ar
    13     8    10    1
    14    10    11   ar
    15    11    12   ar
    16    12    13   ar
    17    13    14    1
    18    13    15   ar
    19    15    16   ar
    20    16    17    1
    21     8     9   ar
    22     9    25    1
    23    25    26   ar
    24    26    27   ar
    25    27    28   ar
    26    28    29    1
    27    28    30   ar
    28    30    31   ar
    29    22    23    1
    30    23    24    1
    31    24    19    1
    32     6     1   ar
    33    16    10   ar
    34    31    25   ar
    35     9     5   ar
@<TRIPOS>MOLECULE
*****
 31 35 0 0 0
SMALL
GASTEIGER

@<TRIPOS>ATOM
      1 C         143.1451  137.6981  156.9333 C.ar    1  UNL1        0.1543
      2 N         144.0568  138.5590  156.1102 N.ar    1  UNL1       -0.2073
      3 C         144.5478  139.8672  156.6557 C.ar    1  UNL1        0.2015
      4 N         144.1272  140.3144  158.0242 N.ar    1  UNL1       -0.2045
      5 C         143.2155  139.4535  158.8474 C.ar    1  UNL1        0.1711
      6 C         142.7244  138.1453  158.3019 C.ar    1  UNL1        0.1487
      7 N         141.8410  137.5138  159.3368 N.ar    1  UNL1       -0.2220
      8 C         141.7861  138.4318  160.5218 C.ar    1  UNL1        0.1497
      9 N         142.6356  139.6305  160.2193 N.ar    1  UNL1       -0.2753
     10 C         141.0168  138.1929  161.7873 C.ar    1  UNL1        0.0451
     11 C         141.7322  137.7416  163.0260 C.ar    1  UNL1        0.0047
     12 C         140.9629  137.5028  164.2913 C.ar    1  UNL1        0.0115
     13 C         139.4783  137.7153  164.3179 C.ar    1  UNL1        0.0585
     14 CL        138.7090  137.4765  165.5834 Cl      1  UNL1       -0.0822
     15 C         138.7629  138.1667  163.0792 C.ar    1  UNL1        0.0229
     16 C         139.5322  138.4055  161.8139 C.ar    1  UNL1        0.0614
     17 CL        138.8169  138.8569  160.5750 Cl      1  UNL1       -0.0821
     18 C         141.1808  132.4653  154.7515 C.3     1  UNL1        0.0897
     19 N         141.6719  133.7735  155.2970 N.3     1  UNL1       -0.2686
     20 C         142.7190  133.7926  156.3708 C.3     1  UNL1        0.0939
     21 C         143.2101  135.1009  156.9163 C.3     1  UNL1        0.1095
     22 N         142.6540  136.3898  156.3879 N.pl3   1  UNL1       -0.2891
     23 C         141.6069  136.3707  155.3140 C.3     1  UNL1        0.1095
     24 C         141.1158  135.0626  154.7686 C.3     1  UNL1        0.0939
     25 C         142.8649  140.8009  161.1291 C.ar    1  UNL1        0.0668
     26 C         144.2186  141.0265  161.7343 C.ar    1  UNL1        0.0185
     27 C         144.4479  142.1968  162.6441 C.ar    1  UNL1        0.0129
     28 C         143.3234  143.1417  162.9487 C.ar    1  UNL1        0.0578
     29 CL        143.5527  144.3120  163.8584 Cl      1  UNL1       -0.0822
     30 C         141.9696  142.9160  162.3435 C.ar    1  UNL1        0.0129
     31 C         141.7403  141.7457  161.4337 C.ar    1  UNL1        0.0185
@<TRIPOS>BOND
     1    18    19    1
     2    19    20    1
     3    20    21    1
     4    21    22    1
     5    22     1    1
     6     1     2   ar
     7     2     3   ar
     8     3     4   ar
     9     4     5   ar
    10     5     6   ar
    11     6     7   ar
    12     7     8   ar
    13     8    10    1
    14    10    11   ar
    15    11    12   ar
    16    12    13   ar
    17    13    14    1
    18    13    15   ar
    19    15    16   ar
    20    16    17    1
    21     8     9   ar
    22     9    25    1
    23    25    26   ar
    24    26    27   ar
    25    27    28   ar
    26    28    29    1
    27    28    30   ar
    28    30    31   ar
    29    22    23    1
    30    23    24    1
    31    24    19    1
    32     6     1   ar
    33    16    10   ar
    34    31    25   ar
    35     9     5   ar
@<TRIPOS>MOLECULE
*****
 31 35 0 0 0
SMALL
GASTEIGER

@<TRIPOS>ATOM
      1 C         139.8461  138.7084  157.4362 C.ar    1  UNL1        0.1543
      2 N         138.8451  139.4858  156.6340 N.ar    1  UNL1       -0.2073
      3 C         138.0809  140.6076  157.2724 C.ar    1  UNL1        0.2015
      4 N         138.3178  140.9520  158.7130 N.ar    1  UNL1       -0.2045
      5 C         139.3187  140.1745  159.5152 C.ar    1  UNL1        0.1711
      6 C         140.0829  139.0527  158.8768 C.ar    1  UNL1        0.1487
      7 N         140.9988  138.4682  159.9110 N.ar    1  UNL1       -0.2220
      8 C         140.8006  139.2287  161.1886 C.ar    1  UNL1        0.1497
      9 N         139.7623  140.2833  160.9440 N.ar    1  UNL1       -0.2753
     10 C         141.5152  138.9787  162.4836 C.ar    1  UNL1        0.0451
     11 C         142.8767  139.5644  162.7141 C.ar    1  UNL1        0.0047
     12 C         143.5913  139.3143  164.0090 C.ar    1  UNL1        0.0115
     13 C         142.9444  138.4785  165.0734 C.ar    1  UNL1        0.0585
     14 CL        143.6590  138.2284  166.3683 Cl      1  UNL1       -0.0822
     15 C         141.5829  137.8927  164.8428 C.ar    1  UNL1        0.0229
     16 C         140.8683  138.1428  163.5479 C.ar    1  UNL1        0.0614
     17 CL        139.5068  137.5570  163.3173 Cl      1  UNL1       -0.0821
     18 C         142.9028  134.2211  154.8826 C.3     1  UNL1        0.0897
     19 N         142.1387  135.3429  155.5210 N.3     1  UNL1       -0.2686
     20 C         142.7866  136.1842  156.5804 C.3     1  UNL1        0.0939
     21 C         142.0224  137.3061  157.2188 C.3     1  UNL1        0.1095
     22 N         140.6103  137.5865  156.7978 N.pl3   1  UNL1       -0.2891
     23 C         139.9623  136.7452  155.7384 C.3     1  UNL1        0.1095
     24 C         140.7265  135.6234  155.1000 C.3     1  UNL1        0.0939
     25 C         139.2563  141.2729  161.9513 C.ar    1  UNL1        0.0668
     26 C         140.0980  142.4556  162.3291 C.ar    1  UNL1        0.0185
     27 C         139.5921  143.4452  163.3363 C.ar    1  UNL1        0.0129
     28 C         138.2443  143.2522  163.9659 C.ar    1  UNL1        0.0578
     29 CL        137.7384  144.2418  164.9732 Cl      1  UNL1       -0.0822
     30 C         137.4026  142.0695  163.5881 C.ar    1  UNL1        0.0129
     31 C         137.9086  141.0799  162.5808 C.ar    1  UNL1        0.0185
@<TRIPOS>BOND
     1    18    19    1
     2    19    20    1
     3    20    21    1
     4    21    22    1
     5    22     1    1
     6     1     2   ar
     7     2     3   ar
     8     3     4   ar
     9     4     5   ar
    10     5     6   ar
    11     6     7   ar
    12     7     8   ar
    13     8    10    1
    14    10    11   ar
    15    11    12   ar
    16    12    13   ar
    17    13    14    1
    18    13    15   ar
    19    15    16   ar
    20    16    17    1
    21     8     9   ar
    22     9    25    1
    23    25    26   ar
    24    26    27   ar
    25    27    28   ar
    26    28    29    1
    27    28    30   ar
    28    30    31   ar
    29    22    23    1
    30    23    24    1
    31    24    19    1
    32     6     1   ar
    33    16    10   ar
    34    31    25   ar
    35     9     5   ar
@<TRIPOS>MOLECULE
*****
 31 35 0 0 0
SMALL
GASTEIGER

@<TRIPOS>ATOM
      1 C         143.0194  137.6244  156.9785 C.ar    1  UNL1        0.1543
      2 N         143.8399  138.4881  156.0670 N.ar    1  UNL1       -0.2073
      3 C         144.1894  139.8887  156.4746 C.ar    1  UNL1        0.2015
      4 N         143.7183  140.4256  157.7936 N.ar    1  UNL1       -0.2045
      5 C         142.8978  139.5619  158.7051 C.ar    1  UNL1        0.1711
      6 C         142.5483  138.1613  158.2975 C.ar    1  UNL1        0.1487
      7 N         141.7311  137.5490  159.3963 N.ar    1  UNL1       -0.2220
      8 C         141.5755  138.5713  160.4829 C.ar    1  UNL1        0.1497
      9 N         142.2966  139.8153  160.0557 N.ar    1  UNL1       -0.2753
     10 C         140.8297  138.3826  161.7708 C.ar    1  UNL1        0.0451
     11 C         139.3303  138.3437  161.7704 C.ar    1  UNL1        0.0047
     12 C         138.5846  138.1551  163.0581 C.ar    1  UNL1        0.0115
     13 C         139.3385  138.0054  164.3463 C.ar    1  UNL1        0.0585
     14 CL        138.5927  137.8167  165.6341 Cl      1  UNL1       -0.0822
     15 C         140.8379  138.0443  164.3467 C.ar    1  UNL1        0.0229
     16 C         141.5836  138.2329  163.0589 C.ar    1  UNL1        0.0614
     17 CL        143.0831  138.2719  163.0593 Cl      1  UNL1       -0.0821
     18 C         141.6214  132.0218  155.3483 C.3     1  UNL1        0.0897
     19 N         141.9708  133.4225  155.7558 N.3     1  UNL1       -0.2686
     20 C         141.2793  134.5862  155.1097 C.3     1  UNL1        0.0939
     21 C         141.6288  135.9869  155.5173 C.3     1  UNL1        0.1095
     22 N         142.6698  136.2237  156.5709 N.pl3   1  UNL1       -0.2891
     23 C         143.3614  135.0600  157.2170 C.3     1  UNL1        0.1095
     24 C         143.0119  133.6594  156.8095 C.3     1  UNL1        0.0939
     25 C         142.3985  141.0890  160.8413 C.ar    1  UNL1        0.0668
     26 C         143.6970  141.4689  161.4891 C.ar    1  UNL1        0.0185
     27 C         143.7989  142.7426  162.2746 C.ar    1  UNL1        0.0129
     28 C         142.6024  143.6367  162.4124 C.ar    1  UNL1        0.0578
     29 CL        142.7043  144.9104  163.1980 Cl      1  UNL1       -0.0822
     30 C         141.3039  143.2568  161.7646 C.ar    1  UNL1        0.0129
     31 C         141.2020  141.9831  160.9791 C.ar    1  UNL1        0.0185
@<TRIPOS>BOND
     1    18    19    1
     2    19    20    1
     3    20    21    1
     4    21    22    1
     5    22     1    1
     6     1     2   ar
     7     2     3   ar
     8     3     4   ar
     9     4     5   ar
    10     5     6   ar
    11     6     7   ar
    12     7     8   ar
    13     8    10    1
    14    10    11   ar
    15    11    12   ar
    16    12    13   ar
    17    13    14    1
    18    13    15   ar
    19    15    16   ar
    20    16    17    1
    21     8     9   ar
    22     9    25    1
    23    25    26   ar
    24    26    27   ar
    25    27    28   ar
    26    28    29    1
    27    28    30   ar
    28    30    31   ar
    29    22    23    1
    30    23    24    1
    31    24    19    1
    32     6     1   ar
    33    16    10   ar
    34    31    25   ar
    35     9     5   ar
@<TRIPOS>MOLECULE
*****
 31 35 0 0 0
SMALL
GASTEIGER

@<TRIPOS>ATOM
      1 C         139.8662  138.7043  157.4516 C.ar    1  UNL1        0.1543
      2 N         138.8719  139.4835  156.6427 N.ar    1  UNL1       -0.2073
      3 C         138.1090  140.6098  157.2747 C.ar    1  UNL1        0.2015
      4 N         138.3404  140.9569  158.7155 N.ar    1  UNL1       -0.2045
      5 C         139.3347  140.1778  159.5243 C.ar    1  UNL1        0.1711
      6 C         140.0976  139.0515  158.8924 C.ar    1  UNL1        0.1487
      7 N         141.0064  138.4662  159.9324 N.ar    1  UNL1       -0.2220
      8 C         140.8052  139.2308  161.2071 C.ar    1  UNL1        0.1497
      9 N         139.7720  140.2886  160.9549 N.ar    1  UNL1       -0.2753
     10 C         141.5128  138.9813  162.5060 C.ar    1  UNL1        0.0451
     11 C         140.9496  137.9998  163.4905 C.ar    1  UNL1        0.0047
     12 C         141.6572  137.7505  164.7894 C.ar    1  UNL1        0.0115
     13 C         142.9281  138.4826  165.1036 C.ar    1  UNL1        0.0585
     14 CL        143.6358  138.2332  166.4026 Cl      1  UNL1       -0.0822
     15 C         143.4914  139.4641  164.1191 C.ar    1  UNL1        0.0229
     16 C         142.7837  139.7135  162.8203 C.ar    1  UNL1        0.0614
     17 CL        143.3470  140.6950  161.8357 Cl      1  UNL1       -0.0821
     18 C         142.9181  134.1991  154.9239 C.3     1  UNL1        0.0897
     19 N         142.1551  135.3253  155.5558 N.3     1  UNL1       -0.2686
     20 C         140.7518  135.6205  155.1157 C.3     1  UNL1        0.0939
     21 C         139.9889  136.7469  155.7476 C.3     1  UNL1        0.1095
     22 N         140.6292  137.5780  156.8196 N.pl3   1  UNL1       -0.2891
     23 C         142.0325  137.2828  157.2597 C.3     1  UNL1        0.1095
     24 C         142.7954  136.1565  156.6278 C.3     1  UNL1        0.0939
     25 C         139.2651  141.2827  161.9573 C.ar    1  UNL1        0.0668
     26 C         140.1430  142.4152  162.4004 C.ar    1  UNL1        0.0185
     27 C         139.6361  143.4094  163.4028 C.ar    1  UNL1        0.0129
     28 C         138.2511  143.2709  163.9621 C.ar    1  UNL1        0.0578
     29 CL        137.7442  144.2650  164.9644 Cl      1  UNL1       -0.0822
     30 C         137.3732  142.1384  163.5189 C.ar    1  UNL1        0.0129
     31 C         137.8801  141.1442  162.5165 C.ar    1  UNL1        0.0185
@<TRIPOS>BOND
     1    18    19    1
     2    19    20    1
     3    20    21    1
     4    21    22    1
     5    22     1    1
     6     1     2   ar
     7     2     3   ar
     8     3     4   ar
     9     4     5   ar
    10     5     6   ar
    11     6     7   ar
    12     7     8   ar
    13     8    10    1
    14    10    11   ar
    15    11    12   ar
    16    12    13   ar
    17    13    14    1
    18    13    15   ar
    19    15    16   ar
    20    16    17    1
    21     8     9   ar
    22     9    25    1
    23    25    26   ar
    24    26    27   ar
    25    27    28   ar
    26    28    29    1
    27    28    30   ar
    28    30    31   ar
    29    22    23    1
    30    23    24    1
    31    24    19    1
    32     6     1   ar
    33    16    10   ar
    34    31    25   ar
    35     9     5   ar
@<TRIPOS>MOLECULE
*****
 31 35 0 0 0
SMALL
GASTEIGER

@<TRIPOS>ATOM
      1 C         139.8336  138.7117  157.4655 C.ar    1  UNL1        0.1543
      2 N         138.8342  139.4894  156.6615 N.ar    1  UNL1       -0.2073
      3 C         138.0718  140.6137  157.2977 C.ar    1  UNL1        0.2015
      4 N         138.3088  140.9602  158.7377 N.ar    1  UNL1       -0.2045
      5 C         139.3082  140.1825  159.5416 C.ar    1  UNL1        0.1711
      6 C         140.0706  139.0583  158.9055 C.ar    1  UNL1        0.1487
      7 N         140.9852  138.4740  159.9411 N.ar    1  UNL1       -0.2220
      8 C         140.7880  139.2373  161.2172 C.ar    1  UNL1        0.1497
      9 N         139.7515  140.2932  160.9703 N.ar    1  UNL1       -0.2753
     10 C         141.5018  138.9884  162.5128 C.ar    1  UNL1        0.0451
     11 C         140.9522  137.9951  163.4931 C.ar    1  UNL1        0.0047
     12 C         141.6661  137.7462  164.7887 C.ar    1  UNL1        0.0115
     13 C         142.9296  138.4907  165.1038 C.ar    1  UNL1        0.0585
     14 CL        143.6434  138.2418  166.3994 Cl      1  UNL1       -0.0822
     15 C         143.4792  139.4840  164.1235 C.ar    1  UNL1        0.0229
     16 C         142.7653  139.7329  162.8280 C.ar    1  UNL1        0.0614
     17 CL        143.3149  140.7263  161.8475 Cl      1  UNL1       -0.0821
     18 C         142.8833  134.2144  154.9210 C.3     1  UNL1        0.0897
     19 N         142.1209  135.3387  155.5571 N.3     1  UNL1       -0.2686
     20 C         142.7543  136.1526  156.6463 C.3     1  UNL1        0.0939
     21 C         141.9919  137.2770  157.2824 C.3     1  UNL1        0.1095
     22 N         140.5960  137.5873  156.8293 N.pl3   1  UNL1       -0.2891
     23 C         139.9626  136.7734  155.7402 C.3     1  UNL1        0.1095
     24 C         140.7250  135.6491  155.1041 C.3     1  UNL1        0.0939
     25 C         139.2470  141.2856  161.9756 C.ar    1  UNL1        0.0668
     26 C         137.8653  141.1432  162.5419 C.ar    1  UNL1        0.0185
     27 C         137.3608  142.1356  163.5472 C.ar    1  UNL1        0.0129
     28 C         138.2380  143.2703  163.9863 C.ar    1  UNL1        0.0578
     29 CL        137.7335  144.2627  164.9916 Cl      1  UNL1       -0.0822
     30 C         139.6197  143.4127  163.4201 C.ar    1  UNL1        0.0129
     31 C         140.1242  142.4203  162.4148 C.ar    1  UNL1        0.0185
@<TRIPOS>BOND
     1    18    19    1
     2    19    20    1
     3    20    21    1
     4    21    22    1
     5    22     1    1
     6     1     2   ar
     7     2     3   ar
     8     3     4   ar
     9     4     5   ar
    10     5     6   ar
    11     6     7   ar
    12     7     8   ar
    13     8    10    1
    14    10    11   ar
    15    11    12   ar
    16    12    13   ar
    17    13    14    1
    18    13    15   ar
    19    15    16   ar
    20    16    17    1
    21     8     9   ar
    22     9    25    1
    23    25    26   ar
    24    26    27   ar
    25    27    28   ar
    26    28    29    1
    27    28    30   ar
    28    30    31   ar
    29    22    23    1
    30    23    24    1
    31    24    19    1
    32     6     1   ar
    33    16    10   ar
    34    31    25   ar
    35     9     5   ar
@<TRIPOS>MOLECULE
*****
 31 35 0 0 0
SMALL
GASTEIGER

@<TRIPOS>ATOM
      1 C         139.9125  142.6905  156.9765 C.ar    1  UNL1        0.1543
      2 N         140.1954  141.4775  156.1407 N.ar    1  UNL1       -0.2073
      3 C         140.3153  140.1307  156.7900 C.ar    1  UNL1        0.2015
      4 N         140.1523  139.9968  158.2751 N.ar    1  UNL1       -0.2045
      5 C         139.8694  141.2098  159.1109 C.ar    1  UNL1        0.1711
      6 C         139.7495  142.5566  158.4616 C.ar    1  UNL1        0.1487
      7 N         139.4677  143.5655  159.5353 N.ar    1  UNL1       -0.2220
      8 C         139.4133  142.8421  160.8482 C.ar    1  UNL1        0.1497
      9 N         139.6617  141.3862  160.5859 N.ar    1  UNL1       -0.2753
     10 C         139.1559  143.4651  162.1882 C.ar    1  UNL1        0.0451
     11 C         137.7990  143.3556  162.8180 C.ar    1  UNL1        0.0047
     12 C         137.5416  143.9786  164.1580 C.ar    1  UNL1        0.0115
     13 C         138.6411  144.7112  164.8682 C.ar    1  UNL1        0.0585
     14 CL        138.3837  145.3342  166.2082 Cl      1  UNL1       -0.0822
     15 C         139.9981  144.8207  164.2384 C.ar    1  UNL1        0.0229
     16 C         140.2555  144.1977  162.8984 C.ar    1  UNL1        0.0614
     17 CL        141.6124  144.3072  162.2686 Cl      1  UNL1       -0.0821
     18 C         139.4330  148.0780  154.3794 C.3     1  UNL1        0.0897
     19 N         139.5529  146.7312  155.0286 N.3     1  UNL1       -0.2686
     20 C         138.3610  145.8231  155.0976 C.3     1  UNL1        0.0939
     21 C         138.4809  144.4762  155.7469 C.3     1  UNL1        0.1095
     22 N         139.7926  144.0374  156.3272 N.pl3   1  UNL1       -0.2891
     23 C         140.9845  144.9455  156.2582 C.3     1  UNL1        0.1095
     24 C         140.8647  146.2924  155.6090 C.3     1  UNL1        0.0939
     25 C         139.6961  140.2978  161.6174 C.ar    1  UNL1        0.0668
     26 C         140.8625  140.1890  162.5543 C.ar    1  UNL1        0.0185
     27 C         140.8970  139.1006  163.5859 C.ar    1  UNL1        0.0129
     28 C         139.7650  138.1209  163.6806 C.ar    1  UNL1        0.0578
     29 CL        139.7995  137.0325  164.7122 Cl      1  UNL1       -0.0822
     30 C         138.5987  138.2297  162.7438 C.ar    1  UNL1        0.0129
     31 C         138.5642  139.3181  161.7122 C.ar    1  UNL1        0.0185
@<TRIPOS>BOND
     1    18    19    1
     2    19    20    1
     3    20    21    1
     4    21    22    1
     5    22     1    1
     6     1     2   ar
     7     2     3   ar
     8     3     4   ar
     9     4     5   ar
    10     5     6   ar
    11     6     7   ar
    12     7     8   ar
    13     8    10    1
    14    10    11   ar
    15    11    12   ar
    16    12    13   ar
    17    13    14    1
    18    13    15   ar
    19    15    16   ar
    20    16    17    1
    21     8     9   ar
    22     9    25    1
    23    25    26   ar
    24    26    27   ar
    25    27    28   ar
    26    28    29    1
    27    28    30   ar
    28    30    31   ar
    29    22    23    1
    30    23    24    1
    31    24    19    1
    32     6     1   ar
    33    16    10   ar
    34    31    25   ar
    35     9     5   ar
@<TRIPOS>MOLECULE
*****
 31 35 0 0 0
SMALL
GASTEIGER

@<TRIPOS>ATOM
      1 C         139.9578  140.2306  157.9046 C.ar    1  UNL1        0.1543
      2 N         140.6997  139.0272  157.4032 N.ar    1  UNL1       -0.2073
      3 C         141.5248  138.2067  158.3497 C.ar    1  UNL1        0.2015
      4 N         141.6082  138.5897  159.7976 N.ar    1  UNL1       -0.2045
      5 C         140.8663  139.7931  160.2990 C.ar    1  UNL1        0.1711
      6 C         140.0411  140.6135  159.3525 C.ar    1  UNL1        0.1487
      7 N         139.4245  141.7382  160.1303 N.ar    1  UNL1       -0.2220
      8 C         139.8686  141.6128  161.5575 C.ar    1  UNL1        0.1497
      9 N         140.7597  140.4106  161.6618 N.ar    1  UNL1       -0.2753
     10 C         139.4883  142.5287  162.6830 C.ar    1  UNL1        0.0451
     11 C         140.3939  143.6612  163.0669 C.ar    1  UNL1        0.0047
     12 C         140.0136  144.5770  164.1923 C.ar    1  UNL1        0.0115
     13 C         138.7279  144.3604  164.9338 C.ar    1  UNL1        0.0585
     14 CL        138.3476  145.2763  166.0593 Cl      1  UNL1       -0.0822
     15 C         137.8223  143.2279  164.5499 C.ar    1  UNL1        0.0229
     16 C         138.2026  142.3120  163.4245 C.ar    1  UNL1        0.0614
     17 CL        137.2970  141.1795  163.0406 Cl      1  UNL1       -0.0821
     18 C         136.6571  143.5126  154.1185 C.3     1  UNL1        0.0897
     19 N         137.4822  142.6921  155.0650 N.3     1  UNL1       -0.2686
     20 C         136.8109  141.8551  156.1132 C.3     1  UNL1        0.0939
     21 C         137.6362  141.0345  157.0598 C.3     1  UNL1        0.1095
     22 N         139.1326  141.0511  156.9580 N.pl3   1  UNL1       -0.2891
     23 C         139.8039  141.8881  155.9098 C.3     1  UNL1        0.1095
     24 C         138.9787  142.7086  154.9633 C.3     1  UNL1        0.0939
     25 C         141.4270  139.9134  162.9097 C.ar    1  UNL1        0.0668
     26 C         142.6708  140.5836  163.4133 C.ar    1  UNL1        0.0185
     27 C         143.3381  140.0864  164.6612 C.ar    1  UNL1        0.0129
     28 C         142.7616  138.9187  165.4057 C.ar    1  UNL1        0.0578
     29 CL        143.4289  138.4214  166.6536 Cl      1  UNL1       -0.0822
     30 C         141.5178  138.2484  164.9021 C.ar    1  UNL1        0.0129
     31 C         140.8505  138.7457  163.6542 C.ar    1  UNL1        0.0185
@<TRIPOS>BOND
     1    18    19    1
     2    19    20    1
     3    20    21    1
     4    21    22    1
     5    22     1    1
     6     1     2   ar
     7     2     3   ar
     8     3     4   ar
     9     4     5   ar
    10     5     6   ar
    11     6     7   ar
    12     7     8   ar
    13     8    10    1
    14    10    11   ar
    15    11    12   ar
    16    12    13   ar
    17    13    14    1
    18    13    15   ar
    19    15    16   ar
    20    16    17    1
    21     8     9   ar
    22     9    25    1
    23    25    26   ar
    24    26    27   ar
    25    27    28   ar
    26    28    29    1
    27    28    30   ar
    28    30    31   ar
    29    22    23    1
    30    23    24    1
    31    24    19    1
    32     6     1   ar
    33    16    10   ar
    34    31    25   ar
    35     9     5   ar
@<TRIPOS>MOLECULE
*****
 31 35 0 0 0
SMALL
GASTEIGER

@<TRIPOS>ATOM
      1 C         143.2742  140.0021  156.9121 C.ar    1  UNL1        0.1543
      2 N         142.4506  138.9631  156.2105 N.ar    1  UNL1       -0.2073
      3 C         141.4922  138.1132  156.9908 C.ar    1  UNL1        0.2015
      4 N         141.3572  138.3023  158.4728 N.ar    1  UNL1       -0.2045
      5 C         142.1808  139.3413  159.1743 C.ar    1  UNL1        0.1711
      6 C         143.1392  140.1912  158.3940 C.ar    1  UNL1        0.1487
      7 N         143.8136  141.1282  159.3517 N.ar    1  UNL1       -0.2220
      8 C         143.2719  140.8574  160.7240 C.ar    1  UNL1        0.1497
      9 N         142.2627  139.7530  160.6143 N.ar    1  UNL1       -0.2753
     10 C         143.6695  141.5664  161.9847 C.ar    1  UNL1        0.0451
     11 C         144.9442  141.1963  162.6833 C.ar    1  UNL1        0.0047
     12 C         145.3417  141.9053  163.9439 C.ar    1  UNL1        0.0115
     13 C         144.4645  142.9846  164.5059 C.ar    1  UNL1        0.0585
     14 CL        144.8621  143.6936  165.7666 Cl      1  UNL1       -0.0822
     15 C         143.1898  143.3547  163.8073 C.ar    1  UNL1        0.0229
     16 C         142.7923  142.6457  162.5467 C.ar    1  UNL1        0.0614
     17 CL        141.5175  143.0158  161.8481 Cl      1  UNL1       -0.0821
     18 C         147.1081  143.4019  153.7907 C.3     1  UNL1        0.0897
     19 N         146.1497  142.5519  154.5710 N.3     1  UNL1       -0.2686
     20 C         146.6149  141.2622  155.1794 C.3     1  UNL1        0.0939
     21 C         145.6564  140.4122  155.9598 C.3     1  UNL1        0.1095
     22 N         144.2327  140.8520  156.1317 N.pl3   1  UNL1       -0.2891
     23 C         143.7674  142.1418  155.5233 C.3     1  UNL1        0.1095
     24 C         144.7259  142.9917  154.7430 C.3     1  UNL1        0.0939
     25 C         141.4740  139.1638  161.7460 C.ar    1  UNL1        0.0668
     26 C         140.1259  139.7231  162.0918 C.ar    1  UNL1        0.0185
     27 C         139.3372  139.1339  163.2235 C.ar    1  UNL1        0.0129
     28 C         139.8966  137.9853  164.0095 C.ar    1  UNL1        0.0578
     29 CL        139.1079  137.3961  165.1412 Cl      1  UNL1       -0.0822
     30 C         141.2447  137.4260  163.6637 C.ar    1  UNL1        0.0129
     31 C         142.0334  138.0152  162.5320 C.ar    1  UNL1        0.0185
@<TRIPOS>BOND
     1    18    19    1
     2    19    20    1
     3    20    21    1
     4    21    22    1
     5    22     1    1
     6     1     2   ar
     7     2     3   ar
     8     3     4   ar
     9     4     5   ar
    10     5     6   ar
    11     6     7   ar
    12     7     8   ar
    13     8    10    1
    14    10    11   ar
    15    11    12   ar
    16    12    13   ar
    17    13    14    1
    18    13    15   ar
    19    15    16   ar
    20    16    17    1
    21     8     9   ar
    22     9    25    1
    23    25    26   ar
    24    26    27   ar
    25    27    28   ar
    26    28    29    1
    27    28    30   ar
    28    30    31   ar
    29    22    23    1
    30    23    24    1
    31    24    19    1
    32     6     1   ar
    33    16    10   ar
    34    31    25   ar
    35     9     5   ar
