@<TRIPOS>MOLECULE
*****
 37 41 0 0 0
SMALL
GASTEIGER

@<TRIPOS>ATOM
      1 N         142.1425  141.4656  165.1306 N.ar    1  UNL1       -0.2986
      2 C         141.0246  142.1535  165.8566 C.ar    1  UNL1        0.1245
      3 C         140.5394  143.2830  164.9970 C.ar    1  UNL1        0.1157
      4 C         141.3574  143.2931  163.7397 C.ar    1  UNL1        0.0967
      5 C         142.3482  142.1699  163.8223 C.ar    1  UNL1        0.1354
      6 C         143.3097  141.9335  162.6955 C.ar    1  UNL1        0.2819
      7 O         144.3004  140.8103  162.7782 O.2     1  UNL1       -0.2652
      8 N         143.2805  142.8203  161.4861 N.ar    1  UNL1       -0.2417
      9 C         142.2897  143.9436  161.4035 C.ar    1  UNL1        0.3342
     10 O         142.2604  144.8304  160.1941 O.2     1  UNL1       -0.2462
     11 N         141.3282  144.1799  162.5303 N.ar    1  UNL1       -0.2770
     12 C         140.3375  145.3031  162.4477 C.3     1  UNL1        0.1351
     13 N         140.4863  141.7780  167.2054 N.pl3   1  UNL1       -0.2925
     14 C         139.6197  140.5542  167.2426 C.3     1  UNL1        0.0936
     15 C         138.9386  139.9260  168.4221 C.3     1  UNL1        0.0385
     16 C         138.9559  140.3665  169.8560 C.3     1  UNL1        0.0704
     17 N         139.6586  141.5438  170.4643 N.3     1  UNL1       -0.2960
     18 C         140.5175  142.5715  169.7890 C.3     1  UNL1        0.0903
     19 C         140.8859  142.6758  168.3386 C.3     1  UNL1        0.1092
     20 H         140.2603  141.1395  171.1818 H       1  UNL1        0.1233
     21 C         139.4309  144.2352  165.3352 C.1     1  UNL1        0.1047
     22 N         138.3223  145.1875  165.6734 N.1     1  UNL1       -0.1907
     23 C         142.9184  140.2813  165.6260 C.3     1  UNL1        0.1842
     24 C         142.5548  138.9899  169.9214 C.3     1  UNL1        0.0900
     25 C         142.6760  139.4204  168.4896 C.1     1  UNL1       -0.0881
     26 C         142.7972  139.8508  167.0577 C.1     1  UNL1       -0.0656
     27 C         144.2419  142.5840  160.3594 C.3     1  UNL1        0.1593
     28 C         143.8953  141.6146  159.2684 C.ar    1  UNL1        0.0821
     29 N         142.7157  140.7011  159.4238 N.ar    1  UNL1       -0.2462
     30 C         142.3690  139.7317  158.3329 C.ar    1  UNL1        0.0985
     31 C         143.2019  139.6758  157.0866 C.ar    1  UNL1        0.0207
     32 C         144.3815  140.5893  156.9312 C.ar    1  UNL1        0.0027
     33 C         145.2144  140.5333  155.6850 C.ar    1  UNL1        0.0001
     34 C         146.3939  141.4468  155.5297 C.ar    1  UNL1        0.0000
     35 C         146.7406  142.4162  156.6206 C.ar    1  UNL1        0.0000
     36 C         145.9078  142.4722  157.8668 C.ar    1  UNL1        0.0012
     37 C         144.7282  141.5587  158.0222 C.ar    1  UNL1        0.0155
@<TRIPOS>BOND
     1    24    25    1
     2    25    26    3
     3    26    23    1
     4    23     1    1
     5     1     2   ar
     6     2    13    1
     7    13    14    1
     8    14    15    1
     9    15    16    1
    10    16    17    1
    11    17    18    1
    12    18    19    1
    13     2     3   ar
    14     3    21    1
    15    21    22    3
    16     3     4   ar
    17     4     5   ar
    18     5     6   ar
    19     6     7    2
    20     6     8   ar
    21     8    27    1
    22    27    28    1
    23    28    29   ar
    24    29    30   ar
    25    30    31   ar
    26    31    32   ar
    27    32    33   ar
    28    33    34   ar
    29    34    35   ar
    30    35    36   ar
    31    36    37   ar
    32     8     9   ar
    33     9    10    2
    34     9    11   ar
    35    11    12    1
    36     5     1   ar
    37    37    28   ar
    38    19    13    1
    39    11     4   ar
    40    37    32   ar
    41    17    20    1
@<TRIPOS>MOLECULE
*****
 37 41 0 0 0
SMALL
GASTEIGER

@<TRIPOS>ATOM
      1 N         142.1622  141.4172  165.2389 N.ar    1  UNL1       -0.2986
      2 C         141.0347  142.1227  165.9325 C.ar    1  UNL1        0.1245
      3 C         140.5790  143.2471  165.0505 C.ar    1  UNL1        0.1157
      4 C         141.4248  143.2365  163.8117 C.ar    1  UNL1        0.0967
      5 C         142.4033  142.1056  163.9282 C.ar    1  UNL1        0.1354
      6 C         143.3874  141.8487  162.8257 C.ar    1  UNL1        0.2819
      7 O         144.3659  140.7178  162.9422 O.2     1  UNL1       -0.2652
      8 N         143.3931  142.7228  161.6067 N.ar    1  UNL1       -0.2417
      9 C         142.4145  143.8538  161.4902 C.ar    1  UNL1        0.3342
     10 O         142.4201  144.7278  160.2712 O.2     1  UNL1       -0.2462
     11 N         141.4304  144.1106  162.5927 N.ar    1  UNL1       -0.2770
     12 C         140.4520  145.2415  162.4762 C.3     1  UNL1        0.1351
     13 N         140.4633  141.7663  167.2729 N.pl3   1  UNL1       -0.2925
     14 C         139.6219  140.5251  167.3125 C.3     1  UNL1        0.0936
     15 C         138.9183  139.9093  168.4853 C.3     1  UNL1        0.0385
     16 C         138.8822  140.3826  169.9083 C.3     1  UNL1        0.0704
     17 N         139.5408  141.5886  170.5098 N.3     1  UNL1       -0.2960
     18 C         140.3982  142.6191  169.8369 C.3     1  UNL1        0.0903
     19 C         140.8088  142.6983  168.3963 C.3     1  UNL1        0.1092
     20 H         140.1285  141.2140  171.2545 H       1  UNL1        0.1233
     21 C         139.4718  144.2125  165.3538 C.1     1  UNL1        0.1047
     22 N         138.3646  145.1781  165.6573 N.1     1  UNL1       -0.1907
     23 C         142.9162  140.2315  165.7639 C.3     1  UNL1        0.1842
     24 C         142.5106  139.0398  170.0843 C.3     1  UNL1        0.0900
     25 C         142.6458  139.4370  168.6441 C.1     1  UNL1       -0.0881
     26 C         142.7810  139.8343  167.2040 C.1     1  UNL1       -0.0656
     27 C         144.3771  142.4660  160.5042 C.3     1  UNL1        0.1593
     28 C         143.8908  142.0654  159.1430 C.ar    1  UNL1        0.0821
     29 N         143.8300  143.0798  158.0397 N.ar    1  UNL1       -0.2462
     30 C         143.3436  142.6793  156.6785 C.ar    1  UNL1        0.0985
     31 C         142.9180  141.2643  156.4205 C.ar    1  UNL1        0.0207
     32 C         142.9788  140.2498  157.5237 C.ar    1  UNL1        0.0027
     33 C         142.5532  138.8348  157.2657 C.ar    1  UNL1        0.0001
     34 C         142.6139  137.8203  158.3690 C.ar    1  UNL1        0.0000
     35 C         143.1003  138.2209  159.7302 C.ar    1  UNL1        0.0000
     36 C         143.5259  139.6359  159.9882 C.ar    1  UNL1        0.0012
     37 C         143.4652  140.6503  158.8850 C.ar    1  UNL1        0.0155
@<TRIPOS>BOND
     1    24    25    1
     2    25    26    3
     3    26    23    1
     4    23     1    1
     5     1     2   ar
     6     2    13    1
     7    13    14    1
     8    14    15    1
     9    15    16    1
    10    16    17    1
    11    17    18    1
    12    18    19    1
    13     2     3   ar
    14     3    21    1
    15    21    22    3
    16     3     4   ar
    17     4     5   ar
    18     5     6   ar
    19     6     7    2
    20     6     8   ar
    21     8    27    1
    22    27    28    1
    23    28    29   ar
    24    29    30   ar
    25    30    31   ar
    26    31    32   ar
    27    32    33   ar
    28    33    34   ar
    29    34    35   ar
    30    35    36   ar
    31    36    37   ar
    32     8     9   ar
    33     9    10    2
    34     9    11   ar
    35    11    12    1
    36     5     1   ar
    37    37    28   ar
    38    19    13    1
    39    11     4   ar
    40    37    32   ar
    41    17    20    1
@<TRIPOS>MOLECULE
*****
 37 41 0 0 0
SMALL
GASTEIGER

@<TRIPOS>ATOM
      1 N         142.1093  140.7283  165.7446 N.ar    1  UNL1       -0.2986
      2 C         140.9314  140.4627  166.6345 C.ar    1  UNL1        0.1245
      3 C         139.9925  139.5513  165.9011 C.ar    1  UNL1        0.1157
      4 C         140.5902  139.2536  164.5580 C.ar    1  UNL1        0.0967
      5 C         141.8984  139.9810  164.4613 C.ar    1  UNL1        0.1354
      6 C         142.7288  139.8689  163.2170 C.ar    1  UNL1        0.2819
      7 O         144.0370  140.5964  163.1203 O.2     1  UNL1       -0.2652
      8 N         142.2508  139.0295  162.0695 N.ar    1  UNL1       -0.2417
      9 C         140.9425  138.3020  162.1662 C.ar    1  UNL1        0.3342
     10 O         140.4645  137.4625  161.0187 O.2     1  UNL1       -0.2462
     11 N         140.1122  138.4141  163.4104 N.ar    1  UNL1       -0.2770
     12 C         138.8040  137.6867  163.5071 C.3     1  UNL1        0.1351
     13 N         140.7280  141.0122  168.0154 N.pl3   1  UNL1       -0.2925
     14 C         140.5108  142.4939  168.1009 C.3     1  UNL1        0.0936
     15 C         140.2807  143.3367  169.3201 C.3     1  UNL1        0.0385
     16 C         140.2109  142.9058  170.7553 C.3     1  UNL1        0.0704
     17 N         140.3541  141.5258  171.3255 N.3     1  UNL1       -0.2960
     18 C         140.6023  140.2358  170.6014 C.3     1  UNL1        0.0903
     19 C         140.7687  140.0072  169.1282 C.3     1  UNL1        0.1092
     20 H         139.4852  141.3690  171.8362 H       1  UNL1        0.1233
     21 C         138.6855  139.0293  166.4198 C.1     1  UNL1        0.1047
     22 N         137.3784  138.5072  166.9385 N.1     1  UNL1       -0.1907
     23 C         143.2907  141.5899  166.0793 C.3     1  UNL1        0.1842
     24 C         143.9250  145.4806  163.9090 C.3     1  UNL1        0.0900
     25 C         143.7135  144.1837  164.6324 C.1     1  UNL1       -0.0881
     26 C         143.5021  142.8868  165.3559 C.1     1  UNL1       -0.0656
     27 C         143.0810  138.9174  160.8253 C.3     1  UNL1        0.1593
     28 C         142.7709  139.7782  159.6366 C.ar    1  UNL1        0.0821
     29 N         142.7150  141.2697  159.7849 N.ar    1  UNL1       -0.2462
     30 C         142.4049  142.1305  158.5963 C.ar    1  UNL1        0.0985
     31 C         142.1508  141.4997  157.2593 C.ar    1  UNL1        0.0207
     32 C         142.2067  140.0081  157.1110 C.ar    1  UNL1        0.0027
     33 C         141.9526  139.3773  155.7740 C.ar    1  UNL1        0.0001
     34 C         142.0085  137.8857  155.6257 C.ar    1  UNL1        0.0000
     35 C         142.3186  137.0249  156.8144 C.ar    1  UNL1        0.0000
     36 C         142.5728  137.6557  158.1513 C.ar    1  UNL1        0.0012
     37 C         142.5168  139.1473  158.2996 C.ar    1  UNL1        0.0155
@<TRIPOS>BOND
     1    24    25    1
     2    25    26    3
     3    26    23    1
     4    23     1    1
     5     1     2   ar
     6     2    13    1
     7    13    14    1
     8    14    15    1
     9    15    16    1
    10    16    17    1
    11    17    18    1
    12    18    19    1
    13     2     3   ar
    14     3    21    1
    15    21    22    3
    16     3     4   ar
    17     4     5   ar
    18     5     6   ar
    19     6     7    2
    20     6     8   ar
    21     8    27    1
    22    27    28    1
    23    28    29   ar
    24    29    30   ar
    25    30    31   ar
    26    31    32   ar
    27    32    33   ar
    28    33    34   ar
    29    34    35   ar
    30    35    36   ar
    31    36    37   ar
    32     8     9   ar
    33     9    10    2
    34     9    11   ar
    35    11    12    1
    36     5     1   ar
    37    37    28   ar
    38    19    13    1
    39    11     4   ar
    40    37    32   ar
    41    17    20    1
@<TRIPOS>MOLECULE
*****
 37 41 0 0 0
SMALL
GASTEIGER

@<TRIPOS>ATOM
      1 N         140.8884  139.1333  158.1524 N.ar    1  UNL1       -0.2986
      2 C         141.8551  138.5478  157.1661 C.ar    1  UNL1        0.1245
      3 C         142.7757  139.6423  156.7138 C.ar    1  UNL1        0.1157
      4 C         142.3781  140.9041  157.4206 C.ar    1  UNL1        0.0967
      5 C         141.2117  140.5895  158.3097 C.ar    1  UNL1        0.1354
      6 C         140.5945  141.6698  159.1477 C.ar    1  UNL1        0.2819
      7 O         139.4281  141.3552  160.0368 O.2     1  UNL1       -0.2652
      8 N         141.1438  143.0647  159.0966 N.ar    1  UNL1       -0.2417
      9 C         142.3103  143.3793  158.2074 C.ar    1  UNL1        0.3342
     10 O         142.8596  144.7741  158.1563 O.2     1  UNL1       -0.2462
     11 N         142.9274  142.2990  157.3695 N.ar    1  UNL1       -0.2770
     12 C         144.0937  142.6136  156.4804 C.3     1  UNL1        0.1351
     13 N         141.8942  137.1188  156.7118 N.pl3   1  UNL1       -0.2925
     14 C         140.9381  136.7586  155.6135 C.3     1  UNL1        0.0936
     15 C         140.7359  135.4296  154.9480 C.3     1  UNL1        0.0385
     16 C         141.4399  134.1325  155.2165 C.3     1  UNL1        0.0704
     17 N         142.5199  133.8441  156.2167 N.3     1  UNL1       -0.2960
     18 C         143.1627  134.7815  157.1955 C.3     1  UNL1        0.0903
     19 C         142.8842  136.2389  157.4158 C.3     1  UNL1        0.1092
     20 H         143.2952  133.4856  155.6593 H       1  UNL1        0.1233
     21 C         143.8971  139.4999  155.7279 C.1     1  UNL1        0.1047
     22 N         145.0186  139.3575  154.7419 N.1     1  UNL1       -0.1907
     23 C         139.7912  138.3925  158.8576 C.3     1  UNL1        0.1842
     24 C         140.0339  137.7042  163.2981 C.3     1  UNL1        0.0900
     25 C         139.9530  137.9337  161.8180 C.1     1  UNL1       -0.0881
     26 C         139.8721  138.1630  160.3378 C.1     1  UNL1       -0.0656
     27 C         140.5267  144.1449  159.9346 C.3     1  UNL1        0.1593
     28 C         141.0036  144.3694  161.3389 C.ar    1  UNL1        0.0821
     29 N         142.4570  144.6277  161.6051 N.ar    1  UNL1       -0.2462
     30 C         142.9339  144.8522  163.0095 C.ar    1  UNL1        0.0985
     31 C         141.9574  144.8184  164.1476 C.ar    1  UNL1        0.0207
     32 C         140.5040  144.5601  163.8814 C.ar    1  UNL1        0.0027
     33 C         139.5275  144.5263  165.0195 C.ar    1  UNL1        0.0001
     34 C         138.0741  144.2679  164.7532 C.ar    1  UNL1        0.0000
     35 C         137.5972  144.0434  163.3489 C.ar    1  UNL1        0.0000
     36 C         138.5737  144.0773  162.2108 C.ar    1  UNL1        0.0012
     37 C         140.0271  144.3356  162.4770 C.ar    1  UNL1        0.0155
@<TRIPOS>BOND
     1    24    25    1
     2    25    26    3
     3    26    23    1
     4    23     1    1
     5     1     2   ar
     6     2    13    1
     7    13    14    1
     8    14    15    1
     9    15    16    1
    10    16    17    1
    11    17    18    1
    12    18    19    1
    13     2     3   ar
    14     3    21    1
    15    21    22    3
    16     3     4   ar
    17     4     5   ar
    18     5     6   ar
    19     6     7    2
    20     6     8   ar
    21     8    27    1
    22    27    28    1
    23    28    29   ar
    24    29    30   ar
    25    30    31   ar
    26    31    32   ar
    27    32    33   ar
    28    33    34   ar
    29    34    35   ar
    30    35    36   ar
    31    36    37   ar
    32     8     9   ar
    33     9    10    2
    34     9    11   ar
    35    11    12    1
    36     5     1   ar
    37    37    28   ar
    38    19    13    1
    39    11     4   ar
    40    37    32   ar
    41    17    20    1
@<TRIPOS>MOLECULE
*****
 37 41 0 0 0
SMALL
GASTEIGER

@<TRIPOS>ATOM
      1 N         140.0643  143.0099  161.1828 N.ar    1  UNL1       -0.2986
      2 C         140.0980  142.6394  159.7296 C.ar    1  UNL1        0.1245
      3 C         139.8488  141.1642  159.6216 C.ar    1  UNL1        0.1157
      4 C         139.6612  140.6230  161.0079 C.ar    1  UNL1        0.0967
      5 C         139.7943  141.7637  161.9727 C.ar    1  UNL1        0.1354
      6 C         139.6525  141.5204  163.4461 C.ar    1  UNL1        0.2819
      7 O         139.7856  142.6611  164.4109 O.2     1  UNL1       -0.2652
      8 N         139.3775  140.1362  163.9545 N.ar    1  UNL1       -0.2417
      9 C         139.2444  138.9954  162.9896 C.ar    1  UNL1        0.3342
     10 O         138.9695  137.6113  163.4980 O.2     1  UNL1       -0.2462
     11 N         139.3862  139.2388  161.5163 N.ar    1  UNL1       -0.2770
     12 C         139.2531  138.0981  160.5515 C.3     1  UNL1        0.1351
     13 N         140.3386  143.5791  158.5854 N.pl3   1  UNL1       -0.2925
     14 C         141.6494  144.3081  158.6066 C.3     1  UNL1        0.0936
     15 C         142.1820  145.3035  157.6190 C.3     1  UNL1        0.0385
     16 C         141.5352  145.8159  156.3663 C.3     1  UNL1        0.0704
     17 N         140.1963  145.4594  155.7919 N.3     1  UNL1       -0.2960
     18 C         139.1733  144.5024  156.3282 C.3     1  UNL1        0.0903
     19 C         139.2366  143.6656  157.5715 C.3     1  UNL1        0.1092
     20 H         140.4041  145.1129  154.8553 H       1  UNL1        0.1233
     21 C         139.7966  140.3696  158.3504 C.1     1  UNL1        0.1047
     22 N         139.7443  139.5749  157.0792 N.1     1  UNL1       -0.1907
     23 C         140.2652  144.3852  161.7469 C.3     1  UNL1        0.1842
     24 C         143.8999  145.2843  164.2430 C.3     1  UNL1        0.0900
     25 C         142.6884  144.9846  163.4110 C.1     1  UNL1       -0.0881
     26 C         141.4768  144.6849  162.5789 C.1     1  UNL1       -0.0656
     27 C         139.2357  139.8928  165.4278 C.3     1  UNL1        0.1593
     28 C         140.4557  139.6737  166.2726 C.ar    1  UNL1        0.0821
     29 N         141.7578  139.3017  165.6276 N.ar    1  UNL1       -0.2462
     30 C         142.9777  139.0827  166.4724 C.ar    1  UNL1        0.0985
     31 C         142.8956  139.2356  167.9623 C.ar    1  UNL1        0.0207
     32 C         141.5935  139.6077  168.6074 C.ar    1  UNL1        0.0027
     33 C         141.5113  139.7607  170.0973 C.ar    1  UNL1        0.0001
     34 C         140.2093  140.1327  170.7424 C.ar    1  UNL1        0.0000
     35 C         138.9893  140.3518  169.8975 C.ar    1  UNL1        0.0000
     36 C         139.0714  140.1988  168.4076 C.ar    1  UNL1        0.0012
     37 C         140.3735  139.8267  167.7626 C.ar    1  UNL1        0.0155
@<TRIPOS>BOND
     1    24    25    1
     2    25    26    3
     3    26    23    1
     4    23     1    1
     5     1     2   ar
     6     2    13    1
     7    13    14    1
     8    14    15    1
     9    15    16    1
    10    16    17    1
    11    17    18    1
    12    18    19    1
    13     2     3   ar
    14     3    21    1
    15    21    22    3
    16     3     4   ar
    17     4     5   ar
    18     5     6   ar
    19     6     7    2
    20     6     8   ar
    21     8    27    1
    22    27    28    1
    23    28    29   ar
    24    29    30   ar
    25    30    31   ar
    26    31    32   ar
    27    32    33   ar
    28    33    34   ar
    29    34    35   ar
    30    35    36   ar
    31    36    37   ar
    32     8     9   ar
    33     9    10    2
    34     9    11   ar
    35    11    12    1
    36     5     1   ar
    37    37    28   ar
    38    19    13    1
    39    11     4   ar
    40    37    32   ar
    41    17    20    1
@<TRIPOS>MOLECULE
*****
 37 41 0 0 0
SMALL
GASTEIGER

@<TRIPOS>ATOM
      1 N         142.1502  140.5142  165.5846 N.ar    1  UNL1       -0.2986
      2 C         141.1202  140.1456  166.6108 C.ar    1  UNL1        0.1245
      3 C         140.0635  139.3248  165.9329 C.ar    1  UNL1        0.1157
      4 C         140.4404  139.1861  164.4877 C.ar    1  UNL1        0.0967
      5 C         141.7301  139.9213  164.2725 C.ar    1  UNL1        0.1354
      6 C         142.3553  139.9558  162.9094 C.ar    1  UNL1        0.2819
      7 O         143.6450  140.6909  162.6942 O.2     1  UNL1       -0.2652
      8 N         141.6909  139.2551  161.7615 N.ar    1  UNL1       -0.2417
      9 C         140.4011  138.5199  161.9768 C.ar    1  UNL1        0.3342
     10 O         139.7367  137.8193  160.8289 O.2     1  UNL1       -0.2462
     11 N         139.7760  138.4855  163.3398 N.ar    1  UNL1       -0.2770
     12 C         138.4863  137.7504  163.5550 C.3     1  UNL1        0.1351
     13 N         141.1429  140.5302  168.0606 N.pl3   1  UNL1       -0.2925
     14 C         140.2902  141.7060  168.4353 C.3     1  UNL1        0.0936
     15 C         140.0993  142.3303  169.7858 C.3     1  UNL1        0.0385
     16 C         140.7139  141.9328  171.0952 C.3     1  UNL1        0.0704
     17 N         141.6712  140.8130  171.3773 N.3     1  UNL1       -0.2960
     18 C         142.2504  139.8141  170.4198 C.3     1  UNL1        0.0903
     19 C         142.0153  139.6882  168.9437 C.3     1  UNL1        0.1092
     20 H         141.2013  140.2470  172.0839 H       1  UNL1        0.1233
     21 C         138.8440  138.7445  166.5855 C.1     1  UNL1        0.1047
     22 N         137.6243  138.1641  167.2381 N.1     1  UNL1       -0.1907
     23 C         143.3838  141.3322  165.8279 C.3     1  UNL1        0.1842
     24 C         143.7934  145.3998  163.9469 C.3     1  UNL1        0.0900
     25 C         143.6569  144.0439  164.5739 C.1     1  UNL1       -0.0881
     26 C         143.5204  142.6881  165.2009 C.1     1  UNL1       -0.0656
     27 C         142.3160  139.2896  160.3985 C.3     1  UNL1        0.1593
     28 C         142.5829  140.6050  159.7288 C.ar    1  UNL1        0.0821
     29 N         143.9930  141.0867  159.5571 N.ar    1  UNL1       -0.2462
     30 C         144.2600  142.4021  158.8874 C.ar    1  UNL1        0.0985
     31 C         143.1168  143.2358  158.3894 C.ar    1  UNL1        0.0207
     32 C         141.7066  142.7541  158.5611 C.ar    1  UNL1        0.0027
     33 C         140.5634  143.5878  158.0632 C.ar    1  UNL1        0.0001
     34 C         139.1533  143.1061  158.2349 C.ar    1  UNL1        0.0000
     35 C         138.8864  141.7907  158.9045 C.ar    1  UNL1        0.0000
     36 C         140.0296  140.9570  159.4025 C.ar    1  UNL1        0.0012
     37 C         141.4397  141.4387  159.2308 C.ar    1  UNL1        0.0155
@<TRIPOS>BOND
     1    24    25    1
     2    25    26    3
     3    26    23    1
     4    23     1    1
     5     1     2   ar
     6     2    13    1
     7    13    14    1
     8    14    15    1
     9    15    16    1
    10    16    17    1
    11    17    18    1
    12    18    19    1
    13     2     3   ar
    14     3    21    1
    15    21    22    3
    16     3     4   ar
    17     4     5   ar
    18     5     6   ar
    19     6     7    2
    20     6     8   ar
    21     8    27    1
    22    27    28    1
    23    28    29   ar
    24    29    30   ar
    25    30    31   ar
    26    31    32   ar
    27    32    33   ar
    28    33    34   ar
    29    34    35   ar
    30    35    36   ar
    31    36    37   ar
    32     8     9   ar
    33     9    10    2
    34     9    11   ar
    35    11    12    1
    36     5     1   ar
    37    37    28   ar
    38    19    13    1
    39    11     4   ar
    40    37    32   ar
    41    17    20    1
@<TRIPOS>MOLECULE
*****
 37 41 0 0 0
SMALL
GASTEIGER

@<TRIPOS>ATOM
      1 N         143.1609  141.9718  160.6090 N.ar    1  UNL1       -0.2986
      2 C         142.9768  141.8166  159.1285 C.ar    1  UNL1        0.1245
      3 C         141.5112  141.9285  158.8294 C.ar    1  UNL1        0.1157
      4 C         140.7895  142.1527  160.1251 C.ar    1  UNL1        0.0967
      5 C         141.8091  142.1795  161.2250 C.ar    1  UNL1        0.1354
      6 C         141.3749  142.3896  162.6453 C.ar    1  UNL1        0.2819
      7 O         142.3945  142.4163  163.7451 O.2     1  UNL1       -0.2652
      8 N         139.9210  142.5728  162.9658 N.ar    1  UNL1       -0.2417
      9 C         138.9014  142.5460  161.8659 C.ar    1  UNL1        0.3342
     10 O         137.4475  142.7293  162.1863 O.2     1  UNL1       -0.2462
     11 N         139.3357  142.3360  160.4456 N.ar    1  UNL1       -0.2770
     12 C         138.3161  142.3092  159.3458 C.3     1  UNL1        0.1351
     13 N         144.0670  141.5895  158.1234 N.pl3   1  UNL1       -0.2925
     14 C         145.1376  142.6391  158.0763 C.3     1  UNL1        0.0936
     15 C         146.3480  142.7013  157.1926 C.3     1  UNL1        0.0385
     16 C         146.7867  141.7292  156.1377 C.3     1  UNL1        0.0704
     17 N         146.1234  140.4551  155.7060 N.3     1  UNL1       -0.2960
     18 C         144.8575  139.8381  156.2226 C.3     1  UNL1        0.0903
     19 C         143.9423  140.3430  157.2985 C.3     1  UNL1        0.1092
     20 H         146.8338  139.7367  155.8469 H       1  UNL1        0.1233
     21 C         140.8783  141.8328  157.4729 C.1     1  UNL1        0.1047
     22 N         140.2455  141.7373  156.1162 N.1     1  UNL1       -0.1907
     23 C         144.4675  141.9271  161.3445 C.3     1  UNL1        0.1842
     24 C         145.0650  138.9808  164.6931 C.3     1  UNL1        0.0900
     25 C         144.8659  139.9629  163.5769 C.1     1  UNL1       -0.0881
     26 C         144.6666  140.9450  162.4607 C.1     1  UNL1       -0.0656
     27 C         139.4867  142.7829  164.3861 C.3     1  UNL1        0.1593
     28 C         139.2177  141.6017  165.2706 C.ar    1  UNL1        0.0821
     29 N         138.3446  140.4834  164.7836 N.ar    1  UNL1       -0.2462
     30 C         138.0756  139.3022  165.6681 C.ar    1  UNL1        0.0985
     31 C         138.6795  139.2393  167.0396 C.ar    1  UNL1        0.0207
     32 C         139.5526  140.3576  167.5267 C.ar    1  UNL1        0.0027
     33 C         140.1566  140.2947  168.8983 C.ar    1  UNL1        0.0001
     34 C         141.0296  141.4129  169.3853 C.ar    1  UNL1        0.0000
     35 C         141.2987  142.5941  168.5008 C.ar    1  UNL1        0.0000
     36 C         140.6947  142.6571  167.1292 C.ar    1  UNL1        0.0012
     37 C         139.8217  141.5388  166.6422 C.ar    1  UNL1        0.0155
@<TRIPOS>BOND
     1    24    25    1
     2    25    26    3
     3    26    23    1
     4    23     1    1
     5     1     2   ar
     6     2    13    1
     7    13    14    1
     8    14    15    1
     9    15    16    1
    10    16    17    1
    11    17    18    1
    12    18    19    1
    13     2     3   ar
    14     3    21    1
    15    21    22    3
    16     3     4   ar
    17     4     5   ar
    18     5     6   ar
    19     6     7    2
    20     6     8   ar
    21     8    27    1
    22    27    28    1
    23    28    29   ar
    24    29    30   ar
    25    30    31   ar
    26    31    32   ar
    27    32    33   ar
    28    33    34   ar
    29    34    35   ar
    30    35    36   ar
    31    36    37   ar
    32     8     9   ar
    33     9    10    2
    34     9    11   ar
    35    11    12    1
    36     5     1   ar
    37    37    28   ar
    38    19    13    1
    39    11     4   ar
    40    37    32   ar
    41    17    20    1
@<TRIPOS>MOLECULE
*****
 37 41 0 0 0
SMALL
GASTEIGER

@<TRIPOS>ATOM
      1 N         143.5853  142.3415  160.2540 N.ar    1  UNL1       -0.2986
      2 C         143.7137  142.8627  158.8533 C.ar    1  UNL1        0.1245
      3 C         142.6444  143.8932  158.6422 C.ar    1  UNL1        0.1157
      4 C         141.8551  144.0090  159.9125 C.ar    1  UNL1        0.0967
      5 C         142.4366  143.0500  160.9085 C.ar    1  UNL1        0.1354
      6 C         141.8449  142.9457  162.2830 C.ar    1  UNL1        0.2819
      7 O         142.4264  141.9867  163.2791 O.2     1  UNL1       -0.2652
      8 N         140.6718  143.8005  162.6614 N.ar    1  UNL1       -0.2417
      9 C         140.0903  144.7595  161.6652 C.ar    1  UNL1        0.3342
     10 O         138.9172  145.6143  162.0436 O.2     1  UNL1       -0.2462
     11 N         140.6820  144.8638  160.2908 N.ar    1  UNL1       -0.2770
     12 C         140.1005  145.8227  159.2948 C.3     1  UNL1        0.1351
     13 N         144.7327  142.4294  157.8413 N.pl3   1  UNL1       -0.2925
     14 C         146.1000  143.0258  157.9980 C.3     1  UNL1        0.0936
     15 C         147.3220  142.7972  157.1586 C.3     1  UNL1        0.0385
     16 C         147.4783  141.9155  155.9551 C.3     1  UNL1        0.0704
     17 N         146.4513  141.0448  155.2939 N.3     1  UNL1       -0.2960
     18 C         145.0144  140.8407  155.6728 C.3     1  UNL1        0.0903
     19 C         144.2495  141.4569  156.8065 C.3     1  UNL1        0.1092
     20 H         146.8569  140.1092  155.3164 H       1  UNL1        0.1233
     21 C         142.4062  144.6714  157.3822 C.1     1  UNL1        0.1047
     22 N         142.1680  145.4495  156.1221 N.1     1  UNL1       -0.1907
     23 C         144.4531  141.2956  160.8886 C.3     1  UNL1        0.1842
     24 C         143.3114  136.9518  160.6090 C.3     1  UNL1        0.0900
     25 C         143.6920  138.3997  160.7022 C.1     1  UNL1       -0.0881
     26 C         144.0725  139.8477  160.7954 C.1     1  UNL1       -0.0656
     27 C         140.0801  143.6963  164.0358 C.3     1  UNL1        0.1593
     28 C         139.4961  142.3965  164.5043 C.ar    1  UNL1        0.0821
     29 N         138.6303  141.5882  163.5840 N.ar    1  UNL1       -0.2462
     30 C         138.0463  140.2885  164.0526 C.ar    1  UNL1        0.0985
     31 C         138.3281  139.7970  165.4415 C.ar    1  UNL1        0.0207
     32 C         139.1939  140.6053  166.3619 C.ar    1  UNL1        0.0027
     33 C         139.4757  140.1138  167.7507 C.ar    1  UNL1        0.0001
     34 C         140.3415  140.9221  168.6710 C.ar    1  UNL1        0.0000
     35 C         140.9255  142.2219  168.2025 C.ar    1  UNL1        0.0000
     36 C         140.6437  142.7133  166.8136 C.ar    1  UNL1        0.0012
     37 C         139.7779  141.9050  165.8933 C.ar    1  UNL1        0.0155
@<TRIPOS>BOND
     1    24    25    1
     2    25    26    3
     3    26    23    1
     4    23     1    1
     5     1     2   ar
     6     2    13    1
     7    13    14    1
     8    14    15    1
     9    15    16    1
    10    16    17    1
    11    17    18    1
    12    18    19    1
    13     2     3   ar
    14     3    21    1
    15    21    22    3
    16     3     4   ar
    17     4     5   ar
    18     5     6   ar
    19     6     7    2
    20     6     8   ar
    21     8    27    1
    22    27    28    1
    23    28    29   ar
    24    29    30   ar
    25    30    31   ar
    26    31    32   ar
    27    32    33   ar
    28    33    34   ar
    29    34    35   ar
    30    35    36   ar
    31    36    37   ar
    32     8     9   ar
    33     9    10    2
    34     9    11   ar
    35    11    12    1
    36     5     1   ar
    37    37    28   ar
    38    19    13    1
    39    11     4   ar
    40    37    32   ar
    41    17    20    1
@<TRIPOS>MOLECULE
*****
 37 41 0 0 0
SMALL
GASTEIGER

@<TRIPOS>ATOM
      1 N         141.6172  143.4781  161.2323 N.ar    1  UNL1       -0.2986
      2 C         141.7672  143.0581  159.8001 C.ar    1  UNL1        0.1245
      3 C         142.5136  141.7573  159.7743 C.ar    1  UNL1        0.1157
      4 C         142.8250  141.3734  161.1905 C.ar    1  UNL1        0.0967
      5 C         142.2709  142.4369  162.0916 C.ar    1  UNL1        0.1354
      6 C         142.4333  142.3198  163.5782 C.ar    1  UNL1        0.2819
      7 O         141.8793  143.3833  164.4792 O.2     1  UNL1       -0.2652
      8 N         143.1497  141.1391  164.1637 N.ar    1  UNL1       -0.2417
      9 C         143.7038  140.0756  163.2626 C.ar    1  UNL1        0.3342
     10 O         144.4202  138.8949  163.8481 O.2     1  UNL1       -0.2462
     11 N         143.5414  140.1927  161.7760 N.ar    1  UNL1       -0.2770
     12 C         144.0954  139.1292  160.8750 C.3     1  UNL1        0.1351
     13 N         141.2598  143.8074  158.6038 N.pl3   1  UNL1       -0.2925
     14 C         142.1183  144.9451  158.1362 C.3     1  UNL1        0.0936
     15 C         141.8902  145.8763  156.9827 C.3     1  UNL1        0.0385
     16 C         140.7470  145.8998  156.0117 C.3     1  UNL1        0.0704
     17 N         139.5498  144.9980  155.9546 N.3     1  UNL1       -0.2960
     18 C         139.2000  143.8499  156.8542 C.3     1  UNL1        0.0903
     19 C         139.9610  143.3200  158.0333 C.3     1  UNL1        0.1092
     20 H         139.5816  144.5900  155.0203 H       1  UNL1        0.1233
     21 C         142.8838  140.9774  158.5477 C.1     1  UNL1        0.1047
     22 N         143.2541  140.1974  157.3210 N.1     1  UNL1       -0.1907
     23 C         140.9335  144.7211  161.7196 C.3     1  UNL1        0.1842
     24 C         137.6060  144.4242  164.7346 C.3     1  UNL1        0.0900
     25 C         138.7151  144.5232  163.7296 C.1     1  UNL1       -0.0881
     26 C         139.8243  144.6221  162.7246 C.1     1  UNL1       -0.0656
     27 C         143.3121  141.0220  165.6502 C.3     1  UNL1        0.1593
     28 C         142.1184  140.7461  166.5157 C.ar    1  UNL1        0.0821
     29 N         140.9697  139.9464  165.9763 N.ar    1  UNL1       -0.2462
     30 C         139.7760  139.6706  166.8418 C.ar    1  UNL1        0.0985
     31 C         139.7310  140.1944  168.2466 C.ar    1  UNL1        0.0207
     32 C         140.8798  140.9941  168.7860 C.ar    1  UNL1        0.0027
     33 C         140.8348  141.5180  170.1908 C.ar    1  UNL1        0.0001
     34 C         141.9834  142.3177  170.7302 C.ar    1  UNL1        0.0000
     35 C         143.1771  142.5935  169.8647 C.ar    1  UNL1        0.0000
     36 C         143.2221  142.0697  168.4599 C.ar    1  UNL1        0.0012
     37 C         142.0735  141.2700  167.9206 C.ar    1  UNL1        0.0155
@<TRIPOS>BOND
     1    24    25    1
     2    25    26    3
     3    26    23    1
     4    23     1    1
     5     1     2   ar
     6     2    13    1
     7    13    14    1
     8    14    15    1
     9    15    16    1
    10    16    17    1
    11    17    18    1
    12    18    19    1
    13     2     3   ar
    14     3    21    1
    15    21    22    3
    16     3     4   ar
    17     4     5   ar
    18     5     6   ar
    19     6     7    2
    20     6     8   ar
    21     8    27    1
    22    27    28    1
    23    28    29   ar
    24    29    30   ar
    25    30    31   ar
    26    31    32   ar
    27    32    33   ar
    28    33    34   ar
    29    34    35   ar
    30    35    36   ar
    31    36    37   ar
    32     8     9   ar
    33     9    10    2
    34     9    11   ar
    35    11    12    1
    36     5     1   ar
    37    37    28   ar
    38    19    13    1
    39    11     4   ar
    40    37    32   ar
    41    17    20    1
