@<TRIPOS>MOLECULE
*****
 33 37 0 0 0
SMALL
GASTEIGER

@<TRIPOS>ATOM
      1 N         142.5895  138.5247  163.7705 N.3     1  UNL1       -0.2726
      2 C         143.7583  138.7578  162.8597 C.3     1  UNL1        0.0721
      3 C         144.4294  140.0307  163.2832 C.3     1  UNL1        0.0190
      4 C         143.6753  140.5843  164.4558 C.3     1  UNL1        0.0201
      5 C         144.5419  141.7944  164.6423 C.3     1  UNL1        0.0061
      6 C         143.3731  141.5613  165.5531 C.3     1  UNL1        0.0237
      7 C         142.5382  139.6536  164.7569 C.3     1  UNL1        0.0724
      8 C         142.5238  141.9908  166.7125 C.ar    1  UNL1       -0.0225
      9 C         143.0831  141.9602  168.1040 C.ar    1  UNL1       -0.0043
     10 C         142.2338  142.3896  169.2634 C.ar    1  UNL1        0.0035
     11 C         140.8252  142.8498  169.0313 C.ar    1  UNL1        0.0714
     12 C         140.2658  142.8804  167.6398 C.ar    1  UNL1        0.0035
     13 C         141.1151  142.4509  166.4804 C.ar    1  UNL1       -0.0043
     14 C         139.9759  143.2792  170.1907 C.3     1  UNL1        0.4186
     15 F         139.1265  143.7087  171.3501 F       1  UNL1       -0.1659
     16 F         140.4970  144.6791  170.0539 F       1  UNL1       -0.1659
     17 F         139.4547  141.8794  170.3275 F       1  UNL1       -0.1659
     18 C         141.6389  137.3662  163.7062 C.3     1  UNL1        0.0730
     19 C         140.4571  137.3136  164.6284 C.3     1  UNL1        0.0294
     20 C         139.1675  137.9699  164.2332 C.3     1  UNL1        0.0666
     21 S         139.0332  138.6064  162.8816 S.3     1  UNL1       -0.0756
     22 C         138.8096  142.4446  162.3486 C.ar    1  UNL1        0.1741
     23 N         137.4262  142.1393  162.8417 N.ar    1  UNL1       -0.1277
     24 N         137.3416  140.6643  163.1013 N.ar    1  UNL1       -0.1221
     25 C         138.6727  140.0580  162.7688 C.ar    1  UNL1        0.1932
     26 N         139.5800  141.1582  162.3036 N.ar    1  UNL1       -0.2880
     27 C         141.0071  140.9999  161.8695 C.3     1  UNL1        0.1340
     28 C         139.2240  144.9775  164.3641 C.3     1  UNL1        0.0528
     29 C         139.5215  144.9627  162.8939 C.ar    1  UNL1        0.0689
     30 N         140.0618  146.1095  162.0921 N.ar    1  UNL1       -0.2405
     31 C         140.2052  145.6540  160.6701 C.ar    1  UNL1        0.1342
     32 S         139.7536  144.2256  160.5931 S.2     1  UNL1       -0.0618
     33 C         139.3311  143.7984  161.9675 C.ar    1  UNL1        0.0803
@<TRIPOS>BOND
     1    28    29    1
     2    29    30   ar
     3    30    31   ar
     4    31    32   ar
     5    32    33   ar
     6    33    22    1
     7    22    23   ar
     8    23    24   ar
     9    24    25   ar
    10    25    21    1
    11    21    20    1
    12    20    19    1
    13    19    18    1
    14    18     1    1
    15     1     2    1
    16     2     3    1
    17     4     3    1
    18     4     5    1
    19     5     6    1
    20     6     8    1
    21     8     9   ar
    22     9    10   ar
    23    10    11   ar
    24    11    14    1
    25    14    15    1
    26    14    16    1
    27    14    17    1
    28    11    12   ar
    29    12    13   ar
    30     4     7    1
    31    25    26   ar
    32    26    27    1
    33    33    29   ar
    34    26    22   ar
    35     7     1    1
    36     6     4    1
    37    13     8   ar
@<TRIPOS>MOLECULE
*****
 33 37 0 0 0
SMALL
GASTEIGER

@<TRIPOS>ATOM
      1 N         138.2037  140.4721  162.7462 N.3     1  UNL1       -0.2726
      2 C         138.0255  139.1758  162.0128 C.3     1  UNL1        0.0721
      3 C         138.6325  138.0853  162.8449 C.3     1  UNL1        0.0190
      4 C         139.1857  138.7076  164.0926 C.3     1  UNL1        0.0201
      5 C         139.6994  137.4311  164.6899 C.3     1  UNL1        0.0061
      6 C         139.8775  138.7274  165.4233 C.3     1  UNL1        0.0237
      7 C         138.9207  140.1827  164.0316 C.3     1  UNL1        0.0724
      8 C         140.3798  139.4873  166.6151 C.ar    1  UNL1       -0.0225
      9 C         141.8332  139.8434  166.7195 C.ar    1  UNL1       -0.0043
     10 C         142.3355  140.6033  167.9113 C.ar    1  UNL1        0.0035
     11 C         141.3843  141.0070  168.9986 C.ar    1  UNL1        0.0714
     12 C         139.9310  140.6508  168.8942 C.ar    1  UNL1        0.0035
     13 C         139.4287  139.8910  167.7025 C.ar    1  UNL1       -0.0043
     14 C         141.8866  141.7669  170.1904 C.3     1  UNL1        0.4186
     15 F         142.3889  142.5268  171.3822 F       1  UNL1       -0.1659
     16 F         142.0903  140.4764  170.9273 F       1  UNL1       -0.1659
     17 F         141.6829  143.0573  169.4534 F       1  UNL1       -0.1659
     18 C         137.7453  141.8210  162.2768 C.3     1  UNL1        0.0730
     19 C         137.4203  142.8921  163.2753 C.3     1  UNL1        0.0294
     20 C         137.7032  144.3294  162.9524 C.3     1  UNL1        0.0666
     21 S         139.1202  144.8133  162.8638 S.3     1  UNL1       -0.0756
     22 C         142.2112  142.7988  164.0694 C.ar    1  UNL1        0.1741
     23 N         141.5546  143.1322  165.3763 N.ar    1  UNL1       -0.1277
     24 N         140.3168  143.9273  165.0837 N.ar    1  UNL1       -0.1221
     25 C         140.2084  144.0855  163.5960 C.ar    1  UNL1        0.1932
     26 N         141.3791  143.3881  162.9691 N.ar    1  UNL1       -0.2880
     27 C         141.6672  143.2960  161.4999 C.3     1  UNL1        0.1340
     28 C         142.4362  139.7526  162.9208 C.3     1  UNL1        0.0528
     29 C         143.5808  140.6139  163.3657 C.ar    1  UNL1        0.0689
     30 N         145.0298  140.2263  163.3608 N.ar    1  UNL1       -0.2405
     31 C         145.8220  141.3869  163.8857 C.ar    1  UNL1        0.1342
     32 S         144.8625  142.4918  164.2151 S.2     1  UNL1       -0.0618
     33 C         143.4774  142.0141  163.8937 C.ar    1  UNL1        0.0803
@<TRIPOS>BOND
     1    28    29    1
     2    29    30   ar
     3    30    31   ar
     4    31    32   ar
     5    32    33   ar
     6    33    22    1
     7    22    23   ar
     8    23    24   ar
     9    24    25   ar
    10    25    21    1
    11    21    20    1
    12    20    19    1
    13    19    18    1
    14    18     1    1
    15     1     2    1
    16     2     3    1
    17     4     3    1
    18     4     5    1
    19     5     6    1
    20     6     8    1
    21     8     9   ar
    22     9    10   ar
    23    10    11   ar
    24    11    14    1
    25    14    15    1
    26    14    16    1
    27    14    17    1
    28    11    12   ar
    29    12    13   ar
    30     4     7    1
    31    25    26   ar
    32    26    27    1
    33    33    29   ar
    34    26    22   ar
    35     7     1    1
    36     6     4    1
    37    13     8   ar
@<TRIPOS>MOLECULE
*****
 33 37 0 0 0
SMALL
GASTEIGER

@<TRIPOS>ATOM
      1 N         138.1736  141.2461  162.0035 N.3     1  UNL1       -0.2726
      2 C         137.5553  140.1865  161.1403 C.3     1  UNL1        0.0721
      3 C         137.8645  138.8520  161.7515 C.3     1  UNL1        0.0190
      4 C         138.6738  139.0868  162.9925 C.3     1  UNL1        0.0201
      5 C         138.8201  137.6400  163.3603 C.3     1  UNL1        0.0061
      6 C         139.4384  138.6996  164.2235 C.3     1  UNL1        0.0237
      7 C         138.8648  140.5664  163.1482 C.3     1  UNL1        0.0724
      8 C         140.2367  139.0877  165.4326 C.ar    1  UNL1       -0.0225
      9 C         141.7139  138.8298  165.4705 C.ar    1  UNL1       -0.0043
     10 C         142.5123  139.2180  166.6795 C.ar    1  UNL1        0.0035
     11 C         141.8334  139.8641  167.8508 C.ar    1  UNL1        0.0714
     12 C         140.3562  140.1219  167.8129 C.ar    1  UNL1        0.0035
     13 C         139.5579  139.7338  166.6038 C.ar    1  UNL1       -0.0043
     14 C         142.6318  140.2522  169.0599 C.3     1  UNL1        0.4186
     15 F         143.4302  140.6404  170.2690 F       1  UNL1       -0.1659
     16 F         143.0949  141.4930  168.3557 F       1  UNL1       -0.1659
     17 F         142.1687  139.0114  169.7640 F       1  UNL1       -0.1659
     18 C         138.1115  142.7255  161.7641 C.3     1  UNL1        0.0730
     19 C         138.3686  143.6794  162.8928 C.3     1  UNL1        0.0294
     20 C         138.8826  145.0592  162.6065 C.3     1  UNL1        0.0666
     21 S         140.3204  145.3941  162.8723 S.3     1  UNL1       -0.0756
     22 C         142.9512  142.5554  162.5787 C.ar    1  UNL1        0.1741
     23 N         143.1634  143.2824  161.2839 N.ar    1  UNL1       -0.1277
     24 N         142.2037  144.4342  161.2363 N.ar    1  UNL1       -0.1221
     25 C         141.3984  144.4192  162.5017 C.ar    1  UNL1        0.1932
     26 N         141.8603  143.2580  163.3314 N.ar    1  UNL1       -0.2880
     27 C         141.3253  142.8679  164.6773 C.3     1  UNL1        0.1340
     28 C         142.3804  139.4825  161.6401 C.3     1  UNL1        0.0528
     29 C         143.4362  139.9269  162.6085 C.ar    1  UNL1        0.0689
     30 N         144.4151  139.0369  163.3154 N.ar    1  UNL1       -0.2405
     31 C         145.2824  139.8993  164.1838 C.ar    1  UNL1        0.1342
     32 S         144.8396  141.3223  164.0135 S.2     1  UNL1       -0.0618
     33 C         143.6986  141.3393  163.0399 C.ar    1  UNL1        0.0803
@<TRIPOS>BOND
     1    28    29    1
     2    29    30   ar
     3    30    31   ar
     4    31    32   ar
     5    32    33   ar
     6    33    22    1
     7    22    23   ar
     8    23    24   ar
     9    24    25   ar
    10    25    21    1
    11    21    20    1
    12    20    19    1
    13    19    18    1
    14    18     1    1
    15     1     2    1
    16     2     3    1
    17     4     3    1
    18     4     5    1
    19     5     6    1
    20     6     8    1
    21     8     9   ar
    22     9    10   ar
    23    10    11   ar
    24    11    14    1
    25    14    15    1
    26    14    16    1
    27    14    17    1
    28    11    12   ar
    29    12    13   ar
    30     4     7    1
    31    25    26   ar
    32    26    27    1
    33    33    29   ar
    34    26    22   ar
    35     7     1    1
    36     6     4    1
    37    13     8   ar
@<TRIPOS>MOLECULE
*****
 33 37 0 0 0
SMALL
GASTEIGER

@<TRIPOS>ATOM
      1 N         141.4085  138.2037  163.2759 N.3     1  UNL1       -0.2726
      2 C         140.0976  137.6346  162.8202 C.3     1  UNL1        0.0721
      3 C         139.0444  138.0519  163.8033 C.3     1  UNL1        0.0190
      4 C         139.7043  138.8789  164.8666 C.3     1  UNL1        0.0201
      5 C         138.4587  139.1345  165.6622 C.3     1  UNL1        0.0061
      6 C         139.7696  139.7035  166.1180 C.3     1  UNL1        0.0237
      7 C         141.1655  138.9727  164.5407 C.3     1  UNL1        0.0724
      8 C         140.5641  140.5082  167.1035 C.ar    1  UNL1       -0.0225
      9 C         141.8460  139.9612  167.6582 C.ar    1  UNL1       -0.0043
     10 C         142.6405  140.7658  168.6437 C.ar    1  UNL1        0.0035
     11 C         142.1532  142.1174  169.0745 C.ar    1  UNL1        0.0714
     12 C         140.8714  142.6644  168.5198 C.ar    1  UNL1        0.0035
     13 C         140.0768  141.8598  167.5343 C.ar    1  UNL1       -0.0043
     14 C         142.9477  142.9221  170.0600 C.3     1  UNL1        0.4186
     15 F         143.7423  143.7268  171.0455 F       1  UNL1       -0.1659
     16 F         144.0827  141.9488  169.9396 F       1  UNL1       -0.1659
     17 F         141.8128  143.8954  170.1803 F       1  UNL1       -0.1659
     18 C         142.7304  138.0336  162.5877 C.3     1  UNL1        0.0730
     19 C         143.9052  138.8685  163.0033 C.3     1  UNL1        0.0294
     20 C         144.4659  139.8949  162.0639 C.3     1  UNL1        0.0666
     21 S         144.5726  141.3275  162.4953 S.3     1  UNL1       -0.0756
     22 C         141.2397  142.9704  163.6170 C.ar    1  UNL1        0.1741
     23 N         142.0431  143.0522  164.8811 N.ar    1  UNL1       -0.1277
     24 N         143.3894  142.4468  164.6147 N.ar    1  UNL1       -0.1221
     25 C         143.4181  141.9907  163.1860 C.ar    1  UNL1        0.1932
     26 N         142.0895  142.3143  162.5693 N.ar    1  UNL1       -0.2880
     27 C         141.6823  142.0314  161.1537 C.3     1  UNL1        0.1340
     28 C         140.3339  145.6238  161.9471 C.3     1  UNL1        0.0528
     29 C         139.4171  144.6784  162.6652 C.ar    1  UNL1        0.0689
     30 N         137.9230  144.7867  162.7419 N.ar    1  UNL1       -0.2405
     31 C         137.4159  143.6340  163.5569 C.ar    1  UNL1        0.1342
     32 S         138.5966  142.8133  163.9839 S.2     1  UNL1       -0.0618
     33 C         139.8334  143.4588  163.4328 C.ar    1  UNL1        0.0803
@<TRIPOS>BOND
     1    28    29    1
     2    29    30   ar
     3    30    31   ar
     4    31    32   ar
     5    32    33   ar
     6    33    22    1
     7    22    23   ar
     8    23    24   ar
     9    24    25   ar
    10    25    21    1
    11    21    20    1
    12    20    19    1
    13    19    18    1
    14    18     1    1
    15     1     2    1
    16     2     3    1
    17     4     3    1
    18     4     5    1
    19     5     6    1
    20     6     8    1
    21     8     9   ar
    22     9    10   ar
    23    10    11   ar
    24    11    14    1
    25    14    15    1
    26    14    16    1
    27    14    17    1
    28    11    12   ar
    29    12    13   ar
    30     4     7    1
    31    25    26   ar
    32    26    27    1
    33    33    29   ar
    34    26    22   ar
    35     7     1    1
    36     6     4    1
    37    13     8   ar
@<TRIPOS>MOLECULE
*****
 33 37 0 0 0
SMALL
GASTEIGER

@<TRIPOS>ATOM
      1 N         144.3205  141.6273  163.5164 N.3     1  UNL1       -0.2726
      2 C         144.9585  140.3567  163.0385 C.3     1  UNL1        0.0721
      3 C         144.6343  139.2753  164.0262 C.3     1  UNL1        0.0190
      4 C         143.7960  139.8777  165.1145 C.3     1  UNL1        0.0201
      5 C         143.6402  138.6152  165.9094 C.3     1  UNL1        0.0061
      6 C         143.0023  139.8859  166.3873 C.3     1  UNL1        0.0237
      7 C         143.6021  141.3313  164.7994 C.3     1  UNL1        0.0724
      8 C         142.1758  140.6243  167.3981 C.ar    1  UNL1       -0.0225
      9 C         142.6962  141.8901  168.0120 C.ar    1  UNL1       -0.0043
     10 C         141.8697  142.6285  169.0227 C.ar    1  UNL1        0.0035
     11 C         140.5227  142.1011  169.4195 C.ar    1  UNL1        0.0714
     12 C         140.0023  140.8353  168.8056 C.ar    1  UNL1        0.0035
     13 C         140.8288  140.0969  167.7949 C.ar    1  UNL1       -0.0043
     14 C         139.6962  142.8395  170.4303 C.3     1  UNL1        0.4186
     15 F         138.8696  143.5779  171.4411 F       1  UNL1       -0.1659
     16 F         140.6400  144.0027  170.3522 F       1  UNL1       -0.1659
     17 F         138.7524  141.6762  170.5083 F       1  UNL1       -0.1659
     18 C         144.3890  142.9601  162.8315 C.3     1  UNL1        0.0730
     19 C         143.9364  144.1966  163.5498 C.3     1  UNL1        0.0294
     20 C         142.8363  145.0383  162.9741 C.3     1  UNL1        0.0666
     21 S         141.4712  145.0158  163.5953 S.3     1  UNL1       -0.0756
     22 C         139.6672  141.5807  163.4870 C.ar    1  UNL1        0.1741
     23 N         139.7754  141.8048  164.9662 N.ar    1  UNL1       -0.1277
     24 N         140.4644  143.1189  165.1869 N.ar    1  UNL1       -0.1221
     25 C         140.7820  143.7069  163.8440 C.ar    1  UNL1        0.1932
     26 N         140.2893  142.7563  162.7934 N.ar    1  UNL1       -0.2880
     27 C         140.3995  142.9477  161.3097 C.3     1  UNL1        0.1340
     28 C         140.6019  138.4747  163.8462 C.3     1  UNL1        0.0528
     29 C         139.4757  138.9625  162.9838 C.ar    1  UNL1        0.0689
     30 N         138.5813  138.1082  162.1352 N.ar    1  UNL1       -0.2405
     31 C         137.5989  139.0078  161.4455 C.ar    1  UNL1        0.1342
     32 S         137.8861  140.4181  161.8680 S.2     1  UNL1       -0.0618
     33 C         139.0460  140.3901  162.8187 C.ar    1  UNL1        0.0803
@<TRIPOS>BOND
     1    28    29    1
     2    29    30   ar
     3    30    31   ar
     4    31    32   ar
     5    32    33   ar
     6    33    22    1
     7    22    23   ar
     8    23    24   ar
     9    24    25   ar
    10    25    21    1
    11    21    20    1
    12    20    19    1
    13    19    18    1
    14    18     1    1
    15     1     2    1
    16     2     3    1
    17     4     3    1
    18     4     5    1
    19     5     6    1
    20     6     8    1
    21     8     9   ar
    22     9    10   ar
    23    10    11   ar
    24    11    14    1
    25    14    15    1
    26    14    16    1
    27    14    17    1
    28    11    12   ar
    29    12    13   ar
    30     4     7    1
    31    25    26   ar
    32    26    27    1
    33    33    29   ar
    34    26    22   ar
    35     7     1    1
    36     6     4    1
    37    13     8   ar
@<TRIPOS>MOLECULE
*****
 33 37 0 0 0
SMALL
GASTEIGER

@<TRIPOS>ATOM
      1 N         138.0853  141.8098  162.7043 N.3     1  UNL1       -0.2726
      2 C         137.6898  143.2155  162.3615 C.3     1  UNL1        0.0721
      3 C         138.1902  144.1166  163.4512 C.3     1  UNL1        0.0190
      4 C         138.8951  143.2678  164.4675 C.3     1  UNL1        0.0201
      5 C         139.2643  144.3957  165.3849 C.3     1  UNL1        0.0061
      6 C         139.6599  142.9900  165.7276 C.3     1  UNL1        0.0237
      7 C         138.8302  141.8421  164.0059 C.3     1  UNL1        0.0724
      8 C         140.3298  142.0180  166.6530 C.ar    1  UNL1       -0.0225
      9 C         141.7489  142.2468  167.0818 C.ar    1  UNL1       -0.0043
     10 C         142.4188  141.2748  168.0072 C.ar    1  UNL1        0.0035
     11 C         141.6696  140.0740  168.5039 C.ar    1  UNL1        0.0714
     12 C         140.2505  139.8452  168.0751 C.ar    1  UNL1        0.0035
     13 C         139.5806  140.8172  167.1497 C.ar    1  UNL1       -0.0043
     14 C         142.3395  139.1020  169.4293 C.3     1  UNL1        0.4186
     15 F         143.0095  138.1299  170.3547 F       1  UNL1       -0.1659
     16 F         141.5674  139.6688  170.5836 F       1  UNL1       -0.1659
     17 F         143.1116  138.5351  168.2749 F       1  UNL1       -0.1659
     18 C         137.7881  140.5865  161.8887 C.3     1  UNL1        0.0730
     19 C         138.0417  139.2235  162.4613 C.3     1  UNL1        0.0294
     20 C         138.7740  138.1943  161.6523 C.3     1  UNL1        0.0666
     21 S         140.2466  137.9915  161.8527 S.3     1  UNL1       -0.0756
     22 C         142.2770  141.0364  163.1459 C.ar    1  UNL1        0.1741
     23 N         142.2946  140.1434  164.3509 N.ar    1  UNL1       -0.1277
     24 N         141.5362  138.8940  164.0132 N.ar    1  UNL1       -0.1221
     25 C         141.0498  139.0150  162.5994 C.ar    1  UNL1        0.1932
     26 N         141.5076  140.3390  162.0633 N.ar    1  UNL1       -0.2880
     27 C         141.2426  140.8721  160.6865 C.3     1  UNL1        0.1340
     28 C         145.4828  141.6437  163.0896 C.3     1  UNL1        0.0528
     29 C         144.3899  142.6684  163.0158 C.ar    1  UNL1        0.0689
     30 N         144.5787  144.1522  162.9031 N.ar    1  UNL1       -0.2405
     31 C         143.2218  144.7902  162.8593 C.ar    1  UNL1        0.1342
     32 S         142.1944  143.7006  162.9449 S.2     1  UNL1       -0.0618
     33 C         142.9164  142.3893  163.0416 C.ar    1  UNL1        0.0803
@<TRIPOS>BOND
     1    28    29    1
     2    29    30   ar
     3    30    31   ar
     4    31    32   ar
     5    32    33   ar
     6    33    22    1
     7    22    23   ar
     8    23    24   ar
     9    24    25   ar
    10    25    21    1
    11    21    20    1
    12    20    19    1
    13    19    18    1
    14    18     1    1
    15     1     2    1
    16     2     3    1
    17     4     3    1
    18     4     5    1
    19     5     6    1
    20     6     8    1
    21     8     9   ar
    22     9    10   ar
    23    10    11   ar
    24    11    14    1
    25    14    15    1
    26    14    16    1
    27    14    17    1
    28    11    12   ar
    29    12    13   ar
    30     4     7    1
    31    25    26   ar
    32    26    27    1
    33    33    29   ar
    34    26    22   ar
    35     7     1    1
    36     6     4    1
    37    13     8   ar
@<TRIPOS>MOLECULE
*****
 33 37 0 0 0
SMALL
GASTEIGER

@<TRIPOS>ATOM
      1 N         143.2496  143.5112  162.1228 N.3     1  UNL1       -0.2726
      2 C         144.4970  143.1505  161.3719 C.3     1  UNL1        0.0721
      3 C         145.2253  142.1021  162.1596 C.3     1  UNL1        0.0190
      4 C         144.4280  141.8149  163.3973 C.3     1  UNL1        0.0201
      5 C         145.3639  140.7814  163.9504 C.3     1  UNL1        0.0061
      6 C         144.1165  141.1422  164.7013 C.3     1  UNL1        0.0237
      7 C         143.2070  142.6858  163.3746 C.3     1  UNL1        0.0724
      8 C         143.2165  140.9621  165.8877 C.ar    1  UNL1       -0.0225
      9 C         142.3963  139.7136  166.0242 C.ar    1  UNL1       -0.0043
     10 C         141.4963  139.5335  167.2106 C.ar    1  UNL1        0.0035
     11 C         141.4164  140.6019  168.2604 C.ar    1  UNL1        0.0714
     12 C         142.2366  141.8504  168.1239 C.ar    1  UNL1        0.0035
     13 C         143.1366  142.0305  166.9375 C.ar    1  UNL1       -0.0043
     14 C         140.5164  140.4218  169.4468 C.3     1  UNL1        0.4186
     15 F         139.6164  140.2417  170.6333 F       1  UNL1       -0.1659
     16 F         139.4382  141.1940  168.7460 F       1  UNL1       -0.1659
     17 F         141.5947  139.6497  170.1476 F       1  UNL1       -0.1659
     18 C         142.2247  144.5203  161.6968 C.3     1  UNL1        0.0730
     19 C         140.7686  144.2624  161.9481 C.3     1  UNL1        0.0294
     20 C         139.9846  145.1873  162.8312 C.3     1  UNL1        0.0666
     21 S         138.6681  144.7459  163.3987 S.3     1  UNL1       -0.0756
     22 C         138.1310  140.9364  163.9134 C.ar    1  UNL1        0.1741
     23 N         137.2634  141.1924  162.7168 N.ar    1  UNL1       -0.1277
     24 N         137.3590  142.6506  162.3784 N.ar    1  UNL1       -0.1221
     25 C         138.2857  143.2958  163.3658 C.ar    1  UNL1        0.1932
     26 N         138.7629  142.2364  164.3145 N.ar    1  UNL1       -0.2880
     27 C         139.7062  142.4411  165.4626 C.3     1  UNL1        0.1340
     28 C         139.3046  138.2284  162.5208 C.3     1  UNL1        0.0528
     29 C         138.8710  138.3681  163.9500 C.ar    1  UNL1        0.0689
     30 N         138.9007  137.2876  164.9900 N.ar    1  UNL1       -0.2405
     31 C         138.3797  137.8645  166.2728 C.ar    1  UNL1        0.1342
     32 S         138.0279  139.3016  166.0257 S.2     1  UNL1       -0.0618
     33 C         138.3316  139.6128  164.5901 C.ar    1  UNL1        0.0803
@<TRIPOS>BOND
     1    28    29    1
     2    29    30   ar
     3    30    31   ar
     4    31    32   ar
     5    32    33   ar
     6    33    22    1
     7    22    23   ar
     8    23    24   ar
     9    24    25   ar
    10    25    21    1
    11    21    20    1
    12    20    19    1
    13    19    18    1
    14    18     1    1
    15     1     2    1
    16     2     3    1
    17     4     3    1
    18     4     5    1
    19     5     6    1
    20     6     8    1
    21     8     9   ar
    22     9    10   ar
    23    10    11   ar
    24    11    14    1
    25    14    15    1
    26    14    16    1
    27    14    17    1
    28    11    12   ar
    29    12    13   ar
    30     4     7    1
    31    25    26   ar
    32    26    27    1
    33    33    29   ar
    34    26    22   ar
    35     7     1    1
    36     6     4    1
    37    13     8   ar
@<TRIPOS>MOLECULE
*****
 33 37 0 0 0
SMALL
GASTEIGER

@<TRIPOS>ATOM
      1 N         141.7370  138.3760  162.9696 N.3     1  UNL1       -0.2726
      2 C         140.5357  137.5738  162.5656 C.3     1  UNL1        0.0721
      3 C         139.5078  137.7001  163.6507 C.3     1  UNL1        0.0190
      4 C         140.0739  138.5803  164.7253 C.3     1  UNL1        0.0201
      5 C         138.8753  138.5199  165.6251 C.3     1  UNL1        0.0061
      6 C         140.0766  139.3221  166.0291 C.3     1  UNL1        0.0237
      7 C         141.4517  138.9981  164.3044 C.3     1  UNL1        0.0724
      8 C         140.7718  140.2135  167.0150 C.ar    1  UNL1       -0.0225
      9 C         140.3355  141.6398  167.1742 C.ar    1  UNL1       -0.0043
     10 C         141.0306  142.5312  168.1601 C.ar    1  UNL1        0.0035
     11 C         142.1622  141.9963  168.9869 C.ar    1  UNL1        0.0714
     12 C         142.5985  140.5700  168.8277 C.ar    1  UNL1        0.0035
     13 C         141.9033  139.6786  167.8418 C.ar    1  UNL1       -0.0043
     14 C         142.8573  142.8877  169.9728 C.3     1  UNL1        0.4186
     15 F         143.5526  143.7792  170.9588 F       1  UNL1       -0.1659
     16 F         141.6505  143.7772  170.0196 F       1  UNL1       -0.1659
     17 F         144.0642  141.9982  169.9261 F       1  UNL1       -0.1659
     18 C         143.0018  138.5293  162.1778 C.3     1  UNL1        0.0730
     19 C         144.2875  138.8622  162.8751 C.3     1  UNL1        0.0294
     20 C         144.7266  140.2913  162.9969 C.3     1  UNL1        0.0666
     21 S         144.2571  141.3078  161.9987 S.3     1  UNL1       -0.0756
     22 C         140.7409  142.7285  162.8254 C.ar    1  UNL1        0.1741
     23 N         140.5802  142.3830  161.3745 N.ar    1  UNL1       -0.1277
     24 N         141.8778  141.8088  160.8883 N.ar    1  UNL1       -0.1221
     25 C         142.8405  141.7993  162.0386 C.ar    1  UNL1        0.1932
     26 N         142.1379  142.3678  163.2358 N.ar    1  UNL1       -0.2880
     27 C         142.7285  142.5444  164.6033 C.3     1  UNL1        0.1340
     28 C         137.8415  141.4062  163.5289 C.3     1  UNL1        0.0528
     29 C         138.3566  142.7214  164.0337 C.ar    1  UNL1        0.0689
     30 N         137.6294  143.6598  164.9506 N.ar    1  UNL1       -0.2405
     31 C         138.5126  144.8476  165.1939 C.ar    1  UNL1        0.1342
     32 S         139.7857  144.6432  164.4274 S.2     1  UNL1       -0.0618
     33 C         139.6892  143.3292  163.7104 C.ar    1  UNL1        0.0803
@<TRIPOS>BOND
     1    28    29    1
     2    29    30   ar
     3    30    31   ar
     4    31    32   ar
     5    32    33   ar
     6    33    22    1
     7    22    23   ar
     8    23    24   ar
     9    24    25   ar
    10    25    21    1
    11    21    20    1
    12    20    19    1
    13    19    18    1
    14    18     1    1
    15     1     2    1
    16     2     3    1
    17     4     3    1
    18     4     5    1
    19     5     6    1
    20     6     8    1
    21     8     9   ar
    22     9    10   ar
    23    10    11   ar
    24    11    14    1
    25    14    15    1
    26    14    16    1
    27    14    17    1
    28    11    12   ar
    29    12    13   ar
    30     4     7    1
    31    25    26   ar
    32    26    27    1
    33    33    29   ar
    34    26    22   ar
    35     7     1    1
    36     6     4    1
    37    13     8   ar
@<TRIPOS>MOLECULE
*****
 33 37 0 0 0
SMALL
GASTEIGER

@<TRIPOS>ATOM
      1 N         142.8926  143.4166  162.0727 N.3     1  UNL1       -0.2726
      2 C         144.1783  143.2071  161.3290 C.3     1  UNL1        0.0721
      3 C         145.0622  142.3331  162.1685 C.3     1  UNL1        0.0190
      4 C         144.3229  142.0024  163.4311 C.3     1  UNL1        0.0201
      5 C         145.4089  141.1608  164.0329 C.3     1  UNL1        0.0061
      6 C         144.1232  141.3703  164.7767 C.3     1  UNL1        0.0237
      7 C         142.9819  142.6721  163.3719 C.3     1  UNL1        0.0724
      8 C         143.2656  141.1263  165.9829 C.ar    1  UNL1       -0.0225
      9 C         143.0857  142.2080  167.0065 C.ar    1  UNL1       -0.0043
     10 C         142.2281  141.9639  168.2127 C.ar    1  UNL1        0.0035
     11 C         141.5505  140.6383  168.3953 C.ar    1  UNL1        0.0714
     12 C         141.7304  139.5566  167.3717 C.ar    1  UNL1        0.0035
     13 C         142.5879  139.8006  166.1655 C.ar    1  UNL1       -0.0043
     14 C         140.6929  140.3943  169.6015 C.3     1  UNL1        0.4186
     15 F         139.8352  140.1503  170.8078 F       1  UNL1       -0.1659
     16 F         141.9040  139.9658  170.3759 F       1  UNL1       -0.1659
     17 F         139.4818  140.8227  168.8272 F       1  UNL1       -0.1659
     18 C         141.7229  144.2281  161.6003 C.3     1  UNL1        0.0730
     19 C         141.0578  145.1979  162.5315 C.3     1  UNL1        0.0294
     20 C         139.6042  145.5262  162.3597 C.3     1  UNL1        0.0666
     21 S         138.5685  144.7782  163.1455 S.3     1  UNL1       -0.0756
     22 C         139.3673  141.1991  164.4176 C.ar    1  UNL1        0.1741
     23 N         139.6867  142.0171  165.6338 N.ar    1  UNL1       -0.1277
     24 N         139.4263  143.4574  165.3053 N.ar    1  UNL1       -0.1221
     25 C         138.9460  143.5295  163.8861 C.ar    1  UNL1        0.1932
     26 N         138.9095  142.1340  163.3375 N.ar    1  UNL1       -0.2880
     27 C         138.4890  141.7419  161.9520 C.3     1  UNL1        0.1340
     28 C         137.9875  139.0063  166.4019 C.3     1  UNL1        0.0528
     29 C         138.8508  138.7003  165.2140 C.ar    1  UNL1        0.0689
     30 N         139.2314  137.3327  164.7296 N.ar    1  UNL1       -0.2405
     31 C         140.1009  137.4954  163.5182 C.ar    1  UNL1        0.1342
     32 S         140.2576  138.9635  163.2539 S.2     1  UNL1       -0.0618
     33 C         139.4850  139.7082  164.3019 C.ar    1  UNL1        0.0803
@<TRIPOS>BOND
     1    28    29    1
     2    29    30   ar
     3    30    31   ar
     4    31    32   ar
     5    32    33   ar
     6    33    22    1
     7    22    23   ar
     8    23    24   ar
     9    24    25   ar
    10    25    21    1
    11    21    20    1
    12    20    19    1
    13    19    18    1
    14    18     1    1
    15     1     2    1
    16     2     3    1
    17     4     3    1
    18     4     5    1
    19     5     6    1
    20     6     8    1
    21     8     9   ar
    22     9    10   ar
    23    10    11   ar
    24    11    14    1
    25    14    15    1
    26    14    16    1
    27    14    17    1
    28    11    12   ar
    29    12    13   ar
    30     4     7    1
    31    25    26   ar
    32    26    27    1
    33    33    29   ar
    34    26    22   ar
    35     7     1    1
    36     6     4    1
    37    13     8   ar
