@<TRIPOS>MOLECULE
*****
 38 43 0 0 0
SMALL
GASTEIGER

@<TRIPOS>ATOM
      1 C         139.5118  140.2203  161.8822 C.3     1  UNL1        0.0927
      2 C         138.6921  140.8587  160.8002 C.3     1  UNL1        0.0420
      3 C         138.7655  140.3358  159.3962 C.ar    1  UNL1        0.0171
      4 C         138.0797  140.7580  158.1308 C.ar    1  UNL1        0.1177
      5 N         138.5489  139.8577  157.0266 N.ar    1  UNL1       -0.1639
      6 N         139.5248  138.8790  157.6096 N.ar    1  UNL1       -0.2300
      7 C         139.6586  139.1745  159.0742 C.ar    1  UNL1        0.0797
      8 C         140.4783  138.5361  160.1560 C.2     1  UNL1        0.0109
      9 C         140.4050  139.0590  161.5601 C.2     1  UNL1       -0.0333
     10 C         141.2247  138.4207  162.6419 C.3     1  UNL1        0.0417
     11 C         141.1513  138.9436  164.0459 C.3     1  UNL1        0.1002
     12 N         140.2582  140.1049  164.3680 N.3     1  UNL1       -0.1544
     13 C         139.4384  140.7432  163.2861 C.3     1  UNL1        0.1071
     14 C         140.2411  137.7952  156.8598 C.ar    1  UNL1        0.0829
     15 C         141.6545  137.4434  157.2182 C.ar    1  UNL1        0.0215
     16 C         142.3709  136.3595  156.4685 C.ar    1  UNL1        0.0312
     17 C         141.6737  135.6274  155.3603 C.ar    1  UNL1        0.1402
     18 F         142.3900  134.5436  154.6105 F       1  UNL1       -0.2042
     19 C         140.2603  135.9792  155.0019 C.ar    1  UNL1        0.0312
     20 C         139.5439  137.0631  155.7517 C.ar    1  UNL1        0.0215
     21 S         140.1848  140.6278  165.7720 S.O2    1  UNL1        0.0633
     22 O         140.6805  141.9627  165.3007 O.2     1  UNL1       -0.1528
     23 O         139.6891  139.2929  166.2433 O.2     1  UNL1       -0.1528
     24 C         140.1114  141.1507  167.1760 C.ar    1  UNL1        0.1223
     25 C         140.5752  142.5440  167.4826 C.ar    1  UNL1        0.0222
     26 C         140.5018  143.0669  168.8865 C.ar    1  UNL1        0.0310
     27 C         139.9647  142.1967  169.9839 C.ar    1  UNL1        0.1402
     28 F         139.8914  142.7196  171.3879 F       1  UNL1       -0.2042
     29 C         139.5010  140.8035  169.6773 C.ar    1  UNL1        0.0310
     30 C         139.5743  140.2805  168.2733 C.ar    1  UNL1        0.0222
     31 O         137.1743  141.1479  162.5345 O.2     1  UNL1       -0.2894
     32 C         138.6187  141.3816  162.2042 C.2     1  UNL1        0.1948
     33 C         139.1700  142.7766  162.1960 C.ar    1  UNL1        0.1162
     34 C         138.3568  143.9077  162.7522 C.ar    1  UNL1        0.0221
     35 C         138.9081  145.3028  162.7440 C.ar    1  UNL1        0.0032
     36 C         140.2726  145.5666  162.1796 C.ar    1  UNL1        0.0207
     37 C         141.0858  144.4355  161.6235 C.ar    1  UNL1        0.0989
     38 N         140.5345  143.0405  161.6317 N.ar    1  UNL1       -0.2409
@<TRIPOS>BOND
     1    31    32    2
     2    32    33    1
     3    33    34   ar
     4    34    35   ar
     5    35    36   ar
     6    36    37   ar
     7    37    38   ar
     8     1    32    1
     9     1     2    1
    10     2     3    1
    11     3     4   ar
    12     4     5   ar
    13     5     6   ar
    14     6    14    1
    15    14    15   ar
    16    15    16   ar
    17    16    17   ar
    18    17    18    1
    19    17    19   ar
    20    19    20   ar
    21     6     7   ar
    22     7     8    1
    23     8     9    2
    24     9    10    1
    25    10    11    1
    26    11    12    1
    27    12    21    1
    28    21    22    2
    29    21    23    2
    30    21    24    1
    31    24    25   ar
    32    25    26   ar
    33    26    27   ar
    34    27    28    1
    35    27    29   ar
    36    29    30   ar
    37    12    13    1
    38    38    33   ar
    39     9     1    1
    40    30    24   ar
    41    13     1    1
    42     7     3   ar
    43    20    14   ar
@<TRIPOS>MOLECULE
*****
 38 43 0 0 0
SMALL
GASTEIGER

@<TRIPOS>ATOM
      1 C         143.0457  139.7023  161.9605 C.3     1  UNL1        0.0927
      2 C         143.7077  140.4770  160.8597 C.3     1  UNL1        0.0420
      3 C         143.6766  139.9571  159.4531 C.ar    1  UNL1        0.0171
      4 C         144.2372  140.4970  158.1708 C.ar    1  UNL1        0.1177
      5 N         143.8907  139.5361  157.0724 N.ar    1  UNL1       -0.1639
      6 N         143.1159  138.4022  157.6758 N.ar    1  UNL1       -0.2300
      7 C         142.9837  138.6624  159.1471 C.ar    1  UNL1        0.0797
      8 C         142.3217  137.8877  160.2478 C.2     1  UNL1        0.0109
      9 C         142.3528  138.4076  161.6546 C.2     1  UNL1       -0.0333
     10 C         141.6908  137.6329  162.7553 C.3     1  UNL1        0.0417
     11 C         141.7219  138.1528  164.1619 C.3     1  UNL1        0.1002
     12 N         142.4149  139.4475  164.4678 N.3     1  UNL1       -0.1544
     13 C         143.0768  140.2222  163.3671 C.3     1  UNL1        0.1071
     14 C         142.5694  137.2164  156.9375 C.ar    1  UNL1        0.0829
     15 C         141.3204  137.3533  156.1183 C.ar    1  UNL1        0.0215
     16 C         140.7738  136.1675  155.3800 C.ar    1  UNL1        0.0312
     17 C         141.4763  134.8446  155.4609 C.ar    1  UNL1        0.1402
     18 F         140.9298  133.6588  154.7227 F       1  UNL1       -0.2042
     19 C         142.7254  134.7077  156.2802 C.ar    1  UNL1        0.0312
     20 C         143.2720  135.8935  157.0185 C.ar    1  UNL1        0.0215
     21 S         142.4459  139.9674  165.8745 S.O2    1  UNL1        0.0633
     22 O         141.6902  141.1881  165.4400 O.2     1  UNL1       -0.1528
     23 O         143.2015  138.7468  166.3091 O.2     1  UNL1       -0.1528
     24 C         142.4769  140.4874  167.2812 C.ar    1  UNL1        0.1223
     25 C         142.4511  141.9656  167.5351 C.ar    1  UNL1        0.0222
     26 C         142.4821  142.4855  168.9418 C.ar    1  UNL1        0.0310
     27 C         142.5389  141.5274  170.0945 C.ar    1  UNL1        0.1402
     28 F         142.5699  142.0473  171.5011 F       1  UNL1       -0.2042
     29 C         142.5647  140.0493  169.8406 C.ar    1  UNL1        0.0310
     30 C         142.5337  139.5293  168.4339 C.ar    1  UNL1        0.0222
     31 O         145.2239  141.0218  162.4746 O.2     1  UNL1       -0.2894
     32 C         143.7387  140.9970  162.2664 C.2     1  UNL1        0.1948
     33 C         142.9463  142.2669  162.3641 C.ar    1  UNL1        0.1162
     34 C         143.5756  143.5012  162.9389 C.ar    1  UNL1        0.0221
     35 C         142.7833  144.7712  163.0366 C.ar    1  UNL1        0.0032
     36 C         141.3616  144.8067  162.5595 C.ar    1  UNL1        0.0207
     37 C         140.7323  143.5723  161.9847 C.ar    1  UNL1        0.0989
     38 N         141.5247  142.3025  161.8870 N.ar    1  UNL1       -0.2409
@<TRIPOS>BOND
     1    31    32    2
     2    32    33    1
     3    33    34   ar
     4    34    35   ar
     5    35    36   ar
     6    36    37   ar
     7    37    38   ar
     8     1    32    1
     9     1     2    1
    10     2     3    1
    11     3     4   ar
    12     4     5   ar
    13     5     6   ar
    14     6    14    1
    15    14    15   ar
    16    15    16   ar
    17    16    17   ar
    18    17    18    1
    19    17    19   ar
    20    19    20   ar
    21     6     7   ar
    22     7     8    1
    23     8     9    2
    24     9    10    1
    25    10    11    1
    26    11    12    1
    27    12    21    1
    28    21    22    2
    29    21    23    2
    30    21    24    1
    31    24    25   ar
    32    25    26   ar
    33    26    27   ar
    34    27    28    1
    35    27    29   ar
    36    29    30   ar
    37    12    13    1
    38    38    33   ar
    39     9     1    1
    40    30    24   ar
    41    13     1    1
    42     7     3   ar
    43    20    14   ar
@<TRIPOS>MOLECULE
*****
 38 43 0 0 0
SMALL
GASTEIGER

@<TRIPOS>ATOM
      1 C         142.0014  140.1066  162.2760 C.3     1  UNL1        0.0927
      2 C         142.9867  140.7605  161.3531 C.3     1  UNL1        0.0420
      3 C         143.2199  140.1959  159.9831 C.ar    1  UNL1        0.0171
      4 C         144.1213  140.6214  158.8623 C.ar    1  UNL1        0.1177
      5 N         143.9265  139.6660  157.7225 N.ar    1  UNL1       -0.1639
      6 N         142.9046  138.6500  158.1389 N.ar    1  UNL1       -0.2300
      7 C         142.4679  138.9775  159.5360 C.ar    1  UNL1        0.0797
      8 C         141.4827  138.3236  160.4589 C.2     1  UNL1        0.0109
      9 C         141.2494  138.8882  161.8289 C.2     1  UNL1       -0.0333
     10 C         140.2641  138.2343  162.7518 C.3     1  UNL1        0.0417
     11 C         140.0309  138.7988  164.1217 C.3     1  UNL1        0.1002
     12 N         140.7829  140.0173  164.5688 N.3     1  UNL1       -0.1544
     13 C         141.7682  140.6712  163.6460 C.3     1  UNL1        0.1071
     14 C         142.4068  137.5071  157.3046 C.ar    1  UNL1        0.0829
     15 C         141.1602  137.6639  156.4852 C.ar    1  UNL1        0.0215
     16 C         140.6623  136.5211  155.6509 C.ar    1  UNL1        0.0312
     17 C         141.4110  135.2214  155.6360 C.ar    1  UNL1        0.1402
     18 F         140.9132  134.0785  154.8017 F       1  UNL1       -0.2042
     19 C         142.6576  135.0646  156.4554 C.ar    1  UNL1        0.0312
     20 C         143.1555  136.2075  157.2897 C.ar    1  UNL1        0.0215
     21 S         140.5496  140.5818  165.9389 S.O2    1  UNL1        0.0633
     22 O         141.9958  140.9707  166.0248 O.2     1  UNL1       -0.1528
     23 O         139.1035  140.1929  165.8530 O.2     1  UNL1       -0.1528
     24 C         140.3164  141.1464  167.3089 C.ar    1  UNL1        0.1223
     25 C         139.6746  140.3013  168.3690 C.ar    1  UNL1        0.0222
     26 C         139.4413  140.8658  169.7390 C.ar    1  UNL1        0.0310
     27 C         139.8500  142.2754  170.0489 C.ar    1  UNL1        0.1402
     28 F         139.6167  142.8400  171.4188 F       1  UNL1       -0.2042
     29 C         140.4918  143.1205  168.9888 C.ar    1  UNL1        0.0310
     30 C         140.7250  142.5560  167.6187 C.ar    1  UNL1        0.0222
     31 O         144.1499  141.1916  163.2541 O.2     1  UNL1       -0.2894
     32 C         142.7534  141.3250  162.7231 C.2     1  UNL1        0.1948
     33 C         142.1088  142.6769  162.6392 C.ar    1  UNL1        0.1162
     34 C         142.5768  143.7877  163.5321 C.ar    1  UNL1        0.0221
     35 C         141.9323  145.1396  163.4482 C.ar    1  UNL1        0.0032
     36 C         140.8197  145.3807  162.4714 C.ar    1  UNL1        0.0207
     37 C         140.3517  144.2699  161.5786 C.ar    1  UNL1        0.0989
     38 N         140.9963  142.9180  161.6625 N.ar    1  UNL1       -0.2409
@<TRIPOS>BOND
     1    31    32    2
     2    32    33    1
     3    33    34   ar
     4    34    35   ar
     5    35    36   ar
     6    36    37   ar
     7    37    38   ar
     8     1    32    1
     9     1     2    1
    10     2     3    1
    11     3     4   ar
    12     4     5   ar
    13     5     6   ar
    14     6    14    1
    15    14    15   ar
    16    15    16   ar
    17    16    17   ar
    18    17    18    1
    19    17    19   ar
    20    19    20   ar
    21     6     7   ar
    22     7     8    1
    23     8     9    2
    24     9    10    1
    25    10    11    1
    26    11    12    1
    27    12    21    1
    28    21    22    2
    29    21    23    2
    30    21    24    1
    31    24    25   ar
    32    25    26   ar
    33    26    27   ar
    34    27    28    1
    35    27    29   ar
    36    29    30   ar
    37    12    13    1
    38    38    33   ar
    39     9     1    1
    40    30    24   ar
    41    13     1    1
    42     7     3   ar
    43    20    14   ar
@<TRIPOS>MOLECULE
*****
 38 43 0 0 0
SMALL
GASTEIGER

@<TRIPOS>ATOM
      1 C         140.7106  140.5221  162.0621 C.3     1  UNL1        0.0927
      2 C         140.6213  141.4385  160.8780 C.3     1  UNL1        0.0420
      3 C         140.8088  140.8945  159.4928 C.ar    1  UNL1        0.0171
      4 C         140.7772  141.5503  158.1441 C.ar    1  UNL1        0.1177
      5 N         141.0345  140.4951  157.1094 N.ar    1  UNL1       -0.1639
      6 N         141.2251  139.1872  157.8187 N.ar    1  UNL1       -0.2300
      7 C         141.0856  139.4340  159.2917 C.ar    1  UNL1        0.0797
      8 C         141.1749  138.5176  160.4758 C.2     1  UNL1        0.0109
      9 C         140.9874  139.0616  161.8610 C.2     1  UNL1       -0.0333
     10 C         141.0766  138.1452  163.0451 C.3     1  UNL1        0.0417
     11 C         140.8891  138.6892  164.4303 C.3     1  UNL1        0.1002
     12 N         140.6123  140.1497  164.6314 N.3     1  UNL1       -0.1544
     13 C         140.5230  141.0661  163.4473 C.3     1  UNL1        0.1071
     14 C         141.5058  137.8647  157.1690 C.ar    1  UNL1        0.0829
     15 C         142.7397  137.0952  157.5371 C.ar    1  UNL1        0.0215
     16 C         143.0206  135.7726  156.8875 C.ar    1  UNL1        0.0312
     17 C         142.0675  135.2195  155.8698 C.ar    1  UNL1        0.1402
     18 F         142.3483  133.8970  155.2202 F       1  UNL1       -0.2042
     19 C         140.8336  135.9890  155.5017 C.ar    1  UNL1        0.0312
     20 C         140.5528  137.3116  156.1513 C.ar    1  UNL1        0.0215
     21 S         140.4248  140.6937  166.0167 S.O2    1  UNL1        0.0633
     22 O         139.2906  139.7376  166.2386 O.2     1  UNL1       -0.1528
     23 O         141.5590  141.6498  165.7949 O.2     1  UNL1       -0.1528
     24 C         140.2373  141.2376  167.4020 C.ar    1  UNL1        0.1223
     25 C         139.6433  140.3722  168.4735 C.ar    1  UNL1        0.0222
     26 C         139.4557  140.9161  169.8588 C.ar    1  UNL1        0.0310
     27 C         139.8621  142.3255  170.1725 C.ar    1  UNL1        0.1402
     28 F         139.6746  142.8695  171.5577 F       1  UNL1       -0.2042
     29 C         140.4561  143.1910  169.1010 C.ar    1  UNL1        0.0310
     30 C         140.6437  142.6470  167.7157 C.ar    1  UNL1        0.0222
     31 O         139.0281  142.4986  162.1750 O.2     1  UNL1       -0.2894
     32 C         140.4338  141.9825  162.2632 C.2     1  UNL1        0.1948
     33 C         141.5627  142.9270  162.5526 C.ar    1  UNL1        0.1162
     34 C         141.2942  144.2228  163.2588 C.ar    1  UNL1        0.0221
     35 C         142.4232  145.1672  163.5481 C.ar    1  UNL1        0.0032
     36 C         143.8205  144.8158  163.1311 C.ar    1  UNL1        0.0207
     37 C         144.0890  143.5199  162.4249 C.ar    1  UNL1        0.0989
     38 N         142.9601  142.5755  162.1356 N.ar    1  UNL1       -0.2409
@<TRIPOS>BOND
     1    31    32    2
     2    32    33    1
     3    33    34   ar
     4    34    35   ar
     5    35    36   ar
     6    36    37   ar
     7    37    38   ar
     8     1    32    1
     9     1     2    1
    10     2     3    1
    11     3     4   ar
    12     4     5   ar
    13     5     6   ar
    14     6    14    1
    15    14    15   ar
    16    15    16   ar
    17    16    17   ar
    18    17    18    1
    19    17    19   ar
    20    19    20   ar
    21     6     7   ar
    22     7     8    1
    23     8     9    2
    24     9    10    1
    25    10    11    1
    26    11    12    1
    27    12    21    1
    28    21    22    2
    29    21    23    2
    30    21    24    1
    31    24    25   ar
    32    25    26   ar
    33    26    27   ar
    34    27    28    1
    35    27    29   ar
    36    29    30   ar
    37    12    13    1
    38    38    33   ar
    39     9     1    1
    40    30    24   ar
    41    13     1    1
    42     7     3   ar
    43    20    14   ar
@<TRIPOS>MOLECULE
*****
 38 43 0 0 0
SMALL
GASTEIGER

@<TRIPOS>ATOM
      1 C         140.7372  139.4427  162.0518 C.3     1  UNL1        0.0927
      2 C         141.8648  138.7402  161.3552 C.3     1  UNL1        0.0420
      3 C         141.7445  138.3859  159.9026 C.ar    1  UNL1        0.0171
      4 C         142.6831  137.6980  158.9562 C.ar    1  UNL1        0.1177
      5 N         142.0155  137.6211  157.6152 N.ar    1  UNL1       -0.1639
      6 N         140.6641  138.2614  157.7329 N.ar    1  UNL1       -0.2300
      7 C         140.4966  138.7341  159.1466 C.ar    1  UNL1        0.0797
      8 C         139.3691  139.4366  159.8431 C.2     1  UNL1        0.0109
      9 C         139.4894  139.7909  161.2957 C.2     1  UNL1       -0.0333
     10 C         138.3618  140.4934  161.9922 C.3     1  UNL1        0.0417
     11 C         138.4821  140.8476  163.4447 C.3     1  UNL1        0.1002
     12 N         139.7300  140.4994  164.2008 N.3     1  UNL1       -0.1544
     13 C         140.8575  139.7970  163.5043 C.3     1  UNL1        0.1071
     14 C         139.6570  138.4040  156.6304 C.ar    1  UNL1        0.0829
     15 C         139.3015  137.2196  155.7815 C.ar    1  UNL1        0.0215
     16 C         138.2944  137.3621  154.6790 C.ar    1  UNL1        0.0312
     17 C         137.6428  138.6892  154.4254 C.ar    1  UNL1        0.1402
     18 F         136.6358  138.8318  153.3229 F       1  UNL1       -0.2042
     19 C         137.9983  139.8737  155.2744 C.ar    1  UNL1        0.0312
     20 C         139.0054  139.7311  156.3769 C.ar    1  UNL1        0.0215
     21 S         139.8502  140.8538  165.6535 S.O2    1  UNL1        0.0633
     22 O         139.2061  142.1811  165.3830 O.2     1  UNL1       -0.1528
     23 O         140.4944  139.5264  165.9239 O.2     1  UNL1       -0.1528
     24 C         139.9705  141.2081  167.1060 C.ar    1  UNL1        0.1223
     25 C         140.4712  142.5636  167.5084 C.ar    1  UNL1        0.0222
     26 C         140.5915  142.9180  168.9609 C.ar    1  UNL1        0.0310
     27 C         140.2110  141.9168  170.0112 C.ar    1  UNL1        0.1402
     28 F         140.3312  142.2712  171.4637 F       1  UNL1       -0.2042
     29 C         139.7103  140.5614  169.6088 C.ar    1  UNL1        0.0310
     30 C         139.5900  140.2070  168.1562 C.ar    1  UNL1        0.0222
     31 O         142.1015  137.7642  163.4909 O.2     1  UNL1       -0.2894
     32 C         141.9850  139.0945  162.8078 C.2     1  UNL1        0.1948
     33 C         143.1165  140.0767  162.8808 C.ar    1  UNL1        0.1162
     34 C         144.2680  139.8267  163.8089 C.ar    1  UNL1        0.0221
     35 C         145.3994  140.8089  163.8819 C.ar    1  UNL1        0.0032
     36 C         145.3792  142.0411  163.0267 C.ar    1  UNL1        0.0207
     37 C         144.2276  142.2910  162.0985 C.ar    1  UNL1        0.0989
     38 N         143.0963  141.3088  162.0256 N.ar    1  UNL1       -0.2409
@<TRIPOS>BOND
     1    31    32    2
     2    32    33    1
     3    33    34   ar
     4    34    35   ar
     5    35    36   ar
     6    36    37   ar
     7    37    38   ar
     8     1    32    1
     9     1     2    1
    10     2     3    1
    11     3     4   ar
    12     4     5   ar
    13     5     6   ar
    14     6    14    1
    15    14    15   ar
    16    15    16   ar
    17    16    17   ar
    18    17    18    1
    19    17    19   ar
    20    19    20   ar
    21     6     7   ar
    22     7     8    1
    23     8     9    2
    24     9    10    1
    25    10    11    1
    26    11    12    1
    27    12    21    1
    28    21    22    2
    29    21    23    2
    30    21    24    1
    31    24    25   ar
    32    25    26   ar
    33    26    27   ar
    34    27    28    1
    35    27    29   ar
    36    29    30   ar
    37    12    13    1
    38    38    33   ar
    39     9     1    1
    40    30    24   ar
    41    13     1    1
    42     7     3   ar
    43    20    14   ar
