@<TRIPOS>MOLECULE
*****
 38 41 0 0 0
SMALL
GASTEIGER

@<TRIPOS>ATOM
      1 C         139.8225  139.5337  162.0176 C.ar    1  UNL1        0.2204
      2 N         140.9576  138.7850  161.3843 N.ar    1  UNL1       -0.2089
      3 C         140.8761  138.3783  159.9428 C.ar    1  UNL1        0.1402
      4 C         139.6596  138.7202  159.1346 C.ar    1  UNL1        0.1773
      5 C         138.5245  139.4689  159.7679 C.ar    1  UNL1        0.1402
      6 N         138.6060  139.8757  161.2094 N.ar    1  UNL1       -0.2089
      7 C         139.1053  137.5733  164.1722 C.3     1  UNL1        0.0233
      8 C         139.5454  138.9603  164.5364 C.3     1  UNL1        0.0955
      9 C         139.6268  139.3671  165.9779 C.3     1  UNL1        0.1165
     10 N         140.0669  140.7541  166.3420 N.am    1  UNL1       -0.2426
     11 C         140.1484  141.1609  167.7836 C.2     1  UNL1        0.4052
     12 O         139.7898  140.1807  168.8609 O.2     1  UNL1       -0.2262
     13 C         140.4255  141.7343  165.2648 C.3     1  UNL1        0.1182
     14 C         140.3440  141.3275  163.8233 C.3     1  UNL1        0.1152
     15 N         139.9040  139.9405  163.4591 N.pl3   1  UNL1       -0.2764
     16 O         140.5885  142.5478  168.1478 O.3     1  UNL1       -0.4281
     17 C         141.5795  142.7539  169.2546 C.3     1  UNL1        0.2773
     18 C         142.6927  142.3530  168.3326 C.3     1  UNL1        0.1934
     19 O         143.6838  142.5590  169.4395 O.3     1  UNL1       -0.3456
     20 C         142.5707  142.9599  170.3616 C.3     1  UNL1        0.1934
     21 C         140.4664  143.1547  170.1767 C.3     1  UNL1        0.4354
     22 F         139.3532  143.5556  171.0988 F       1  UNL1       -0.1663
     23 F         140.8394  142.0419  171.1108 F       1  UNL1       -0.1663
     24 F         140.0934  144.2675  169.2425 F       1  UNL1       -0.1663
     25 O         139.5782  138.3134  157.6931 O.3     1  UNL1       -0.4674
     26 C         140.8188  138.2855  156.8505 C.3     1  UNL1        0.2344
     27 C         141.4631  136.9752  156.5074 C.ar    1  UNL1        0.0486
     28 C         142.7636  136.5885  157.1471 C.ar    1  UNL1        0.0013
     29 C         143.4079  135.2781  156.8040 C.ar    1  UNL1       -0.0026
     30 C         142.7517  134.3543  155.8211 C.ar    1  UNL1        0.0035
     31 C         141.4512  134.7410  155.1813 C.ar    1  UNL1        0.0269
     32 C         140.8069  136.0513  155.5244 C.ar    1  UNL1        0.1393
     33 F         139.5065  136.4380  154.8846 F       1  UNL1       -0.2044
     34 C         143.3960  133.0439  155.4780 C.3     1  UNL1        0.1773
     35 S         143.8529  132.1239  156.5711 S.O2    1  UNL1       -0.0040
     36 C         144.3099  131.2039  157.6641 C.3     1  UNL1        0.1764
     37 O         142.4422  132.0148  157.0690 O.2     1  UNL1       -0.1726
     38 O         145.2637  132.2330  156.0732 O.2     1  UNL1       -0.1726
@<TRIPOS>BOND
     1     8     7    1
     2     8     9    1
     3     9    10    1
     4    10    11   am
     5    11    12    2
     6    11    16    1
     7    16    17    1
     8    17    21    1
     9    21    22    1
    10    21    23    1
    11    21    24    1
    12    17    18    1
    13    18    19    1
    14    19    20    1
    15    10    13    1
    16    13    14    1
    17    14    15    1
    18    15     1    1
    19     1     2   ar
    20     2     3   ar
    21     3     4   ar
    22     4    25    1
    23    25    26    1
    24    26    27    1
    25    27    28   ar
    26    28    29   ar
    27    29    30   ar
    28    30    34    1
    29    34    35    1
    30    35    36    1
    31    35    37    2
    32    35    38    2
    33    30    31   ar
    34    31    32   ar
    35    32    33    1
    36     4     5   ar
    37     5     6   ar
    38    15     8    1
    39     6     1   ar
    40    20    17    1
    41    32    27   ar
@<TRIPOS>MOLECULE
*****
 38 41 0 0 0
SMALL
GASTEIGER

@<TRIPOS>ATOM
      1 C         141.9398  139.1057  162.1310 C.ar    1  UNL1        0.2204
      2 N         142.8447  137.9344  161.8878 N.ar    1  UNL1       -0.2089
      3 C         143.2962  137.6121  160.4941 C.ar    1  UNL1        0.1402
      4 C         142.8427  138.4611  159.3436 C.ar    1  UNL1        0.1773
      5 C         141.9378  139.6324  159.5868 C.ar    1  UNL1        0.1402
      6 N         141.4863  139.9547  160.9805 N.ar    1  UNL1       -0.2089
      7 C         139.5584  137.7034  163.2984 C.3     1  UNL1        0.0233
      8 C         140.2977  138.7269  164.1084 C.3     1  UNL1        0.0955
      9 C         139.8463  139.0492  165.5020 C.3     1  UNL1        0.1165
     10 N         140.5855  140.0726  166.3120 N.am    1  UNL1       -0.2426
     11 C         140.1341  140.3949  167.7057 C.2     1  UNL1        0.4052
     12 O         138.9434  139.6938  168.2894 O.2     1  UNL1       -0.2262
     13 C         141.7762  140.7737  165.7283 C.3     1  UNL1        0.1182
     14 C         142.2276  140.4514  164.3347 C.3     1  UNL1        0.1152
     15 N         141.4883  139.4280  163.5247 N.pl3   1  UNL1       -0.2764
     16 O         140.8733  141.4183  168.5157 O.3     1  UNL1       -0.4281
     17 C         141.1164  141.1851  169.9774 C.3     1  UNL1        0.2773
     18 C         140.2324  142.3503  170.3103 C.3     1  UNL1        0.1934
     19 O         140.4755  142.1172  171.7720 O.3     1  UNL1       -0.3456
     20 C         141.3594  140.9520  171.4391 C.3     1  UNL1        0.1934
     21 C         142.0004  140.0199  169.6445 C.3     1  UNL1        0.4354
     22 F         142.8844  138.8546  169.3117 F       1  UNL1       -0.1663
     23 F         142.9181  140.9327  168.8865 F       1  UNL1       -0.1663
     24 F         141.0826  139.1072  170.4026 F       1  UNL1       -0.1663
     25 O         143.2942  138.1388  157.9500 O.3     1  UNL1       -0.4674
     26 C         142.3141  137.6017  156.9495 C.3     1  UNL1        0.2344
     27 C         142.2887  136.1347  156.6375 C.ar    1  UNL1        0.0486
     28 C         143.1763  135.1915  157.3942 C.ar    1  UNL1        0.0013
     29 C         143.1509  133.7245  157.0821 C.ar    1  UNL1       -0.0026
     30 C         142.2378  133.2008  156.0135 C.ar    1  UNL1        0.0035
     31 C         141.3502  134.1439  155.2569 C.ar    1  UNL1        0.0269
     32 C         141.3756  135.6109  155.5689 C.ar    1  UNL1        0.1393
     33 F         140.4880  136.5541  154.8122 F       1  UNL1       -0.2044
     34 C         142.2124  131.7338  155.7016 C.3     1  UNL1        0.1773
     35 S         143.4973  130.9904  155.4862 S.O2    1  UNL1       -0.0040
     36 C         144.7822  130.2471  155.2708 C.3     1  UNL1        0.1764
     37 O         143.3699  130.3755  156.8484 O.2     1  UNL1       -0.1726
     38 O         143.6247  131.6054  154.1240 O.2     1  UNL1       -0.1726
@<TRIPOS>BOND
     1     8     7    1
     2     8     9    1
     3     9    10    1
     4    10    11   am
     5    11    12    2
     6    11    16    1
     7    16    17    1
     8    17    21    1
     9    21    22    1
    10    21    23    1
    11    21    24    1
    12    17    18    1
    13    18    19    1
    14    19    20    1
    15    10    13    1
    16    13    14    1
    17    14    15    1
    18    15     1    1
    19     1     2   ar
    20     2     3   ar
    21     3     4   ar
    22     4    25    1
    23    25    26    1
    24    26    27    1
    25    27    28   ar
    26    28    29   ar
    27    29    30   ar
    28    30    34    1
    29    34    35    1
    30    35    36    1
    31    35    37    2
    32    35    38    2
    33    30    31   ar
    34    31    32   ar
    35    32    33    1
    36     4     5   ar
    37     5     6   ar
    38    15     8    1
    39     6     1   ar
    40    20    17    1
    41    32    27   ar
@<TRIPOS>MOLECULE
*****
 38 41 0 0 0
SMALL
GASTEIGER

@<TRIPOS>ATOM
      1 C         141.7721  138.8265  162.2399 C.ar    1  UNL1        0.2204
      2 N         142.9996  137.9832  162.0615 N.ar    1  UNL1       -0.2089
      3 C         143.4560  137.6049  160.6836 C.ar    1  UNL1        0.1402
      4 C         142.6848  138.0700  159.4840 C.ar    1  UNL1        0.1773
      5 C         141.4572  138.9133  159.6624 C.ar    1  UNL1        0.1402
      6 N         141.0009  139.2916  161.0403 N.ar    1  UNL1       -0.2089
      7 C         139.4331  137.4194  163.4845 C.3     1  UNL1        0.0233
      8 C         140.1463  138.5012  164.2401 C.3     1  UNL1        0.0955
      9 C         139.6900  138.8795  165.6180 C.3     1  UNL1        0.1165
     10 N         140.4032  139.9613  166.3736 N.am    1  UNL1       -0.2426
     11 C         139.9468  140.3396  167.7516 C.2     1  UNL1        0.4052
     12 O         138.7774  139.6360  168.3739 O.2     1  UNL1       -0.2262
     13 C         141.5726  140.6649  165.7514 C.3     1  UNL1        0.1182
     14 C         142.0289  140.2866  164.3735 C.3     1  UNL1        0.1152
     15 N         141.3157  139.2048  163.6178 N.pl3   1  UNL1       -0.2764
     16 O         140.6600  141.4215  168.5072 O.3     1  UNL1       -0.4281
     17 C         141.0623  141.1989  169.9350 C.3     1  UNL1        0.2773
     18 C         140.1216  142.2836  170.3691 C.3     1  UNL1        0.1934
     19 O         140.5239  142.0611  171.7970 O.3     1  UNL1       -0.3456
     20 C         141.4646  140.9764  171.3629 C.3     1  UNL1        0.1934
     21 C         142.0030  140.1142  169.5009 C.3     1  UNL1        0.4354
     22 F         142.9437  139.0295  169.0668 F       1  UNL1       -0.1663
     23 F         142.8165  141.1224  168.7448 F       1  UNL1       -0.1663
     24 F         141.1894  139.1061  170.2571 F       1  UNL1       -0.1663
     25 O         143.1411  137.6917  158.1061 O.3     1  UNL1       -0.4674
     26 C         142.1932  137.0137  157.1618 C.3     1  UNL1        0.2344
     27 C         142.5607  135.6952  156.5482 C.ar    1  UNL1        0.0486
     28 C         142.2873  135.4420  155.0952 C.ar    1  UNL1        0.0013
     29 C         142.6548  134.1234  154.4816 C.ar    1  UNL1       -0.0026
     30 C         143.2958  133.0583  155.3210 C.ar    1  UNL1        0.0035
     31 C         143.5692  133.3115  156.7739 C.ar    1  UNL1        0.0269
     32 C         143.2017  134.6300  157.3875 C.ar    1  UNL1        0.1393
     33 F         143.4751  134.8832  158.8405 F       1  UNL1       -0.2044
     34 C         143.6633  131.7398  154.7073 C.3     1  UNL1        0.1773
     35 S         143.4429  130.4688  155.4728 S.O2    1  UNL1       -0.0040
     36 C         143.2225  129.1978  156.2383 C.3     1  UNL1        0.1764
     37 O         141.9592  130.6559  155.3563 O.2     1  UNL1       -0.1726
     38 O         144.9266  130.2817  155.5893 O.2     1  UNL1       -0.1726
@<TRIPOS>BOND
     1     8     7    1
     2     8     9    1
     3     9    10    1
     4    10    11   am
     5    11    12    2
     6    11    16    1
     7    16    17    1
     8    17    21    1
     9    21    22    1
    10    21    23    1
    11    21    24    1
    12    17    18    1
    13    18    19    1
    14    19    20    1
    15    10    13    1
    16    13    14    1
    17    14    15    1
    18    15     1    1
    19     1     2   ar
    20     2     3   ar
    21     3     4   ar
    22     4    25    1
    23    25    26    1
    24    26    27    1
    25    27    28   ar
    26    28    29   ar
    27    29    30   ar
    28    30    34    1
    29    34    35    1
    30    35    36    1
    31    35    37    2
    32    35    38    2
    33    30    31   ar
    34    31    32   ar
    35    32    33    1
    36     4     5   ar
    37     5     6   ar
    38    15     8    1
    39     6     1   ar
    40    20    17    1
    41    32    27   ar
@<TRIPOS>MOLECULE
*****
 38 41 0 0 0
SMALL
GASTEIGER

@<TRIPOS>ATOM
      1 C         141.8469  139.1141  162.1988 C.ar    1  UNL1        0.2204
      2 N         141.2509  139.8374  161.0276 N.ar    1  UNL1       -0.2089
      3 C         141.7148  139.5223  159.6364 C.ar    1  UNL1        0.1402
      4 C         142.7748  138.4840  159.4163 C.ar    1  UNL1        0.1773
      5 C         143.3708  137.7607  160.5875 C.ar    1  UNL1        0.1402
      6 N         142.9069  138.0758  161.9788 N.ar    1  UNL1       -0.2089
      7 C         139.5590  137.5890  163.3986 C.3     1  UNL1        0.0233
      8 C         140.2391  138.6667  164.1899 C.3     1  UNL1        0.0955
      9 C         139.7752  138.9818  165.5811 C.3     1  UNL1        0.1165
     10 N         140.4552  140.0594  166.3725 N.am    1  UNL1       -0.2426
     11 C         139.9913  140.3745  167.7637 C.2     1  UNL1        0.4052
     12 O         138.8473  139.6120  168.3636 O.2     1  UNL1       -0.2262
     13 C         141.5991  140.8220  165.7726 C.3     1  UNL1        0.1182
     14 C         142.0630  140.5069  164.3814 C.3     1  UNL1        0.1152
     15 N         141.3830  139.4292  163.5901 N.pl3   1  UNL1       -0.2764
     16 O         140.6713  141.4522  168.5550 O.3     1  UNL1       -0.4281
     17 C         141.0187  141.2192  169.9955 C.3     1  UNL1        0.2773
     18 C         140.0923  142.3280  170.3983 C.3     1  UNL1        0.1934
     19 O         140.4397  142.0950  171.8388 O.3     1  UNL1       -0.3456
     20 C         141.3661  140.9862  171.4360 C.3     1  UNL1        0.1934
     21 C         141.9451  140.1104  169.5927 C.3     1  UNL1        0.4354
     22 F         142.8716  139.0015  169.1899 F       1  UNL1       -0.1663
     23 F         142.7930  141.0923  168.8399 F       1  UNL1       -0.1663
     24 F         141.0971  139.1285  170.3456 F       1  UNL1       -0.1663
     25 O         143.2387  138.1689  158.0251 O.3     1  UNL1       -0.4674
     26 C         143.0225  139.1599  156.9200 C.3     1  UNL1        0.2344
     27 C         144.1688  139.9888  156.4211 C.ar    1  UNL1        0.0486
     28 C         144.7129  139.7632  155.0416 C.ar    1  UNL1        0.0013
     29 C         145.8593  140.5922  154.5427 C.ar    1  UNL1       -0.0026
     30 C         146.4615  141.6466  155.4233 C.ar    1  UNL1        0.0035
     31 C         145.9174  141.8721  156.8028 C.ar    1  UNL1        0.0269
     32 C         144.7711  141.0432  157.3017 C.ar    1  UNL1        0.1393
     33 F         144.2270  141.2688  158.6813 F       1  UNL1       -0.2044
     34 C         147.6077  142.4755  154.9244 C.3     1  UNL1        0.1773
     35 S         148.9902  141.8950  154.8815 S.O2    1  UNL1       -0.0040
     36 C         150.3727  141.3145  154.8385 C.3     1  UNL1        0.1764
     37 O         149.0869  142.0149  156.3735 O.2     1  UNL1       -0.1726
     38 O         148.8935  141.7751  153.3894 O.2     1  UNL1       -0.1726
@<TRIPOS>BOND
     1     8     7    1
     2     8     9    1
     3     9    10    1
     4    10    11   am
     5    11    12    2
     6    11    16    1
     7    16    17    1
     8    17    21    1
     9    21    22    1
    10    21    23    1
    11    21    24    1
    12    17    18    1
    13    18    19    1
    14    19    20    1
    15    10    13    1
    16    13    14    1
    17    14    15    1
    18    15     1    1
    19     1     2   ar
    20     2     3   ar
    21     3     4   ar
    22     4    25    1
    23    25    26    1
    24    26    27    1
    25    27    28   ar
    26    28    29   ar
    27    29    30   ar
    28    30    34    1
    29    34    35    1
    30    35    36    1
    31    35    37    2
    32    35    38    2
    33    30    31   ar
    34    31    32   ar
    35    32    33    1
    36     4     5   ar
    37     5     6   ar
    38    15     8    1
    39     6     1   ar
    40    20    17    1
    41    32    27   ar
@<TRIPOS>MOLECULE
*****
 38 41 0 0 0
SMALL
GASTEIGER

@<TRIPOS>ATOM
      1 C         142.1409  139.2522  162.1447 C.ar    1  UNL1        0.2204
      2 N         143.5656  139.2342  161.6757 N.ar    1  UNL1       -0.2089
      3 C         143.8867  138.8267  160.2683 C.ar    1  UNL1        0.1402
      4 C         142.7832  138.4373  159.3299 C.ar    1  UNL1        0.1773
      5 C         141.3585  138.4553  159.7989 C.ar    1  UNL1        0.1402
      6 N         141.0374  138.8628  161.2064 N.ar    1  UNL1       -0.2089
      7 C         141.2684  137.1901  164.1414 C.3     1  UNL1        0.0233
      8 C         141.3836  138.6287  164.5505 C.3     1  UNL1        0.0955
      9 C         141.0625  139.0362  165.9579 C.3     1  UNL1        0.1165
     10 N         141.1777  140.4747  166.3670 N.am    1  UNL1       -0.2426
     11 C         140.8566  140.8822  167.7745 C.2     1  UNL1        0.4052
     12 O         140.4203  139.8512  168.7728 O.2     1  UNL1       -0.2262
     13 C         141.6139  141.5057  165.3687 C.3     1  UNL1        0.1182
     14 C         141.9350  141.0982  163.9613 C.3     1  UNL1        0.1152
     15 N         141.8198  139.6597  163.5522 N.pl3   1  UNL1       -0.2764
     16 O         140.9717  142.3207  168.1836 O.3     1  UNL1       -0.4281
     17 C         141.8248  142.7007  169.3574 C.3     1  UNL1        0.2773
     18 C         143.0570  142.3655  168.5704 C.3     1  UNL1        0.1934
     19 O         143.9101  142.7454  169.7443 O.3     1  UNL1       -0.3456
     20 C         142.6780  143.0806  170.5313 C.3     1  UNL1        0.1934
     21 C         140.5926  143.0358  170.1444 C.3     1  UNL1        0.4354
     22 F         139.3604  143.3709  170.9315 F       1  UNL1       -0.1663
     23 F         140.1896  144.0256  169.0919 F       1  UNL1       -0.1663
     24 F         140.9958  142.0460  171.1970 F       1  UNL1       -0.1663
     25 O         143.1043  138.0298  157.9225 O.3     1  UNL1       -0.4674
     26 C         143.1431  139.0607  156.8335 C.3     1  UNL1        0.2344
     27 C         142.8837  140.5024  157.1560 C.ar    1  UNL1        0.0486
     28 C         141.4760  141.0179  157.2080 C.ar    1  UNL1        0.0013
     29 C         141.2167  142.4597  157.5306 C.ar    1  UNL1       -0.0026
     30 C         142.3651  143.3860  157.8011 C.ar    1  UNL1        0.0035
     31 C         143.7728  142.8705  157.7490 C.ar    1  UNL1        0.0269
     32 C         144.0321  141.4288  157.4265 C.ar    1  UNL1        0.1393
     33 F         145.4398  140.9134  157.3745 F       1  UNL1       -0.2044
     34 C         142.1057  144.8277  158.1236 C.3     1  UNL1        0.1773
     35 S         141.1821  145.1903  159.2485 S.O2    1  UNL1       -0.0040
     36 C         140.2586  145.5528  160.3735 C.3     1  UNL1        0.1764
     37 O         140.1848  145.7174  158.2599 O.2     1  UNL1       -0.1726
     38 O         142.1795  144.6631  160.2372 O.2     1  UNL1       -0.1726
@<TRIPOS>BOND
     1     8     7    1
     2     8     9    1
     3     9    10    1
     4    10    11   am
     5    11    12    2
     6    11    16    1
     7    16    17    1
     8    17    21    1
     9    21    22    1
    10    21    23    1
    11    21    24    1
    12    17    18    1
    13    18    19    1
    14    19    20    1
    15    10    13    1
    16    13    14    1
    17    14    15    1
    18    15     1    1
    19     1     2   ar
    20     2     3   ar
    21     3     4   ar
    22     4    25    1
    23    25    26    1
    24    26    27    1
    25    27    28   ar
    26    28    29   ar
    27    29    30   ar
    28    30    34    1
    29    34    35    1
    30    35    36    1
    31    35    37    2
    32    35    38    2
    33    30    31   ar
    34    31    32   ar
    35    32    33    1
    36     4     5   ar
    37     5     6   ar
    38    15     8    1
    39     6     1   ar
    40    20    17    1
    41    32    27   ar
@<TRIPOS>MOLECULE
*****
 38 41 0 0 0
SMALL
GASTEIGER

@<TRIPOS>ATOM
      1 C         140.6719  144.5072  159.5427 C.ar    1  UNL1        0.2204
      2 N         139.5876  144.2321  158.5433 N.ar    1  UNL1       -0.2089
      3 C         139.6932  144.7818  157.1517 C.ar    1  UNL1        0.1402
      4 C         140.8831  145.6067  156.7594 C.ar    1  UNL1        0.1773
      5 C         141.9674  145.8818  157.7588 C.ar    1  UNL1        0.1402
      6 N         141.8617  145.3320  159.1504 N.ar    1  UNL1       -0.2089
      7 C         139.8201  146.2907  161.7996 C.3     1  UNL1        0.0233
      8 C         140.1404  144.8491  162.0627 C.3     1  UNL1        0.0955
      9 C         140.0348  144.2993  163.4543 C.3     1  UNL1        0.1165
     10 N         140.3551  142.8577  163.7175 N.am    1  UNL1       -0.2426
     11 C         140.2494  142.3079  165.1091 C.2     1  UNL1        0.4052
     12 O         139.8235  143.1997  166.2375 O.2     1  UNL1       -0.2262
     13 C         140.7810  141.9660  162.5891 C.3     1  UNL1        0.1182
     14 C         140.8866  142.5158  161.1975 C.3     1  UNL1        0.1152
     15 N         140.5663  143.9574  160.9343 N.pl3   1  UNL1       -0.2764
     16 O         140.5697  140.8663  165.3723 O.3     1  UNL1       -0.4281
     17 C         139.6373  140.0293  166.1969 C.3     1  UNL1        0.2773
     18 C         138.6042  140.1120  165.1126 C.3     1  UNL1        0.1934
     19 O         137.6717  139.2749  165.9372 O.3     1  UNL1       -0.3456
     20 C         138.7048  139.1923  167.0215 C.3     1  UNL1        0.1934
     21 C         140.6705  139.9467  167.2812 C.3     1  UNL1        0.4354
     22 F         141.7036  139.8640  168.3656 F       1  UNL1       -0.1663
     23 F         141.7198  139.6298  166.2573 F       1  UNL1       -0.1663
     24 F         139.6210  140.2636  168.3051 F       1  UNL1       -0.1663
     25 O         140.9887  146.1564  155.3678 O.3     1  UNL1       -0.4674
     26 C         139.7681  146.6885  154.6770 C.3     1  UNL1        0.2344
     27 C         139.4679  148.1577  154.7104 C.ar    1  UNL1        0.0486
     28 C         138.7079  148.7419  155.8642 C.ar    1  UNL1        0.0013
     29 C         138.4077  150.2112  155.8976 C.ar    1  UNL1       -0.0026
     30 C         138.8676  151.0963  154.7773 C.ar    1  UNL1        0.0035
     31 C         139.6276  150.5122  153.6235 C.ar    1  UNL1        0.0269
     32 C         139.9278  149.0429  153.5901 C.ar    1  UNL1        0.1393
     33 F         140.6878  148.4588  152.4363 F       1  UNL1       -0.2044
     34 C         138.5674  152.5655  154.8107 C.3     1  UNL1        0.1773
     35 S         139.0639  153.4577  153.7118 S.O2    1  UNL1       -0.0040
     36 C         139.5604  154.3499  152.6129 C.3     1  UNL1        0.1764
     37 O         140.3414  153.6767  154.4668 O.2     1  UNL1       -0.1726
     38 O         137.7864  153.2387  152.9568 O.2     1  UNL1       -0.1726
@<TRIPOS>BOND
     1     8     7    1
     2     8     9    1
     3     9    10    1
     4    10    11   am
     5    11    12    2
     6    11    16    1
     7    16    17    1
     8    17    21    1
     9    21    22    1
    10    21    23    1
    11    21    24    1
    12    17    18    1
    13    18    19    1
    14    19    20    1
    15    10    13    1
    16    13    14    1
    17    14    15    1
    18    15     1    1
    19     1     2   ar
    20     2     3   ar
    21     3     4   ar
    22     4    25    1
    23    25    26    1
    24    26    27    1
    25    27    28   ar
    26    28    29   ar
    27    29    30   ar
    28    30    34    1
    29    34    35    1
    30    35    36    1
    31    35    37    2
    32    35    38    2
    33    30    31   ar
    34    31    32   ar
    35    32    33    1
    36     4     5   ar
    37     5     6   ar
    38    15     8    1
    39     6     1   ar
    40    20    17    1
    41    32    27   ar
@<TRIPOS>MOLECULE
*****
 38 41 0 0 0
SMALL
GASTEIGER

@<TRIPOS>ATOM
      1 C         142.2573  139.4759  161.6407 C.ar    1  UNL1        0.2204
      2 N         142.8992  138.1407  161.4056 N.ar    1  UNL1       -0.2089
      3 C         142.8106  137.4932  160.0555 C.ar    1  UNL1        0.1402
      4 C         142.0800  138.1809  158.9404 C.ar    1  UNL1        0.1773
      5 C         141.4380  139.5160  159.1755 C.ar    1  UNL1        0.1402
      6 N         141.5267  140.1635  160.5257 N.ar    1  UNL1       -0.2089
      7 C         144.7773  140.8766  162.4701 C.3     1  UNL1        0.0233
      8 C         143.6059  140.8237  163.4055 C.3     1  UNL1        0.0955
      9 C         143.6945  141.4711  164.7557 C.3     1  UNL1        0.1165
     10 N         142.5231  141.4183  165.6911 N.am    1  UNL1       -0.2426
     11 C         142.6118  142.0658  167.0413 C.2     1  UNL1        0.4052
     12 O         143.8718  142.7661  167.4560 O.2     1  UNL1       -0.2262
     13 C         141.2632  140.7180  165.2765 C.3     1  UNL1        0.1182
     14 C         141.1746  140.0705  163.9264 C.3     1  UNL1        0.1152
     15 N         142.3459  140.1234  162.9909 N.pl3   1  UNL1       -0.2764
     16 O         141.4404  142.0129  167.9768 O.3     1  UNL1       -0.4281
     17 C         141.6609  141.7821  169.4424 C.3     1  UNL1        0.2773
     18 C         142.1362  140.3894  169.1516 C.3     1  UNL1        0.1934
     19 O         142.3567  140.1586  170.6173 O.3     1  UNL1       -0.3456
     20 C         141.8814  141.5512  170.9081 C.3     1  UNL1        0.1934
     21 C         141.1856  143.1747  169.7333 C.3     1  UNL1        0.4354
     22 F         140.7102  144.5674  170.0241 F       1  UNL1       -0.1663
     23 F         142.5618  143.5471  170.1994 F       1  UNL1       -0.1663
     24 F         139.8093  142.8023  169.2671 F       1  UNL1       -0.1663
     25 O         141.9914  137.5334  157.5903 O.3     1  UNL1       -0.4674
     26 C         143.1613  136.7672  157.0476 C.3     1  UNL1        0.2344
     27 C         142.9688  135.3739  156.5265 C.ar    1  UNL1        0.0486
     28 C         142.5436  135.1571  155.1045 C.ar    1  UNL1        0.0013
     29 C         142.3511  133.7637  154.5834 C.ar    1  UNL1       -0.0026
     30 C         142.5838  132.5872  155.4843 C.ar    1  UNL1        0.0035
     31 C         143.0089  132.8041  156.9063 C.ar    1  UNL1        0.0269
     32 C         143.2014  134.1974  157.4275 C.ar    1  UNL1        0.1393
     33 F         143.6266  134.4142  158.8495 F       1  UNL1       -0.2044
     34 C         142.3913  131.1939  154.9632 C.3     1  UNL1        0.1773
     35 S         143.1316  130.7419  153.7394 S.O2    1  UNL1       -0.0040
     36 C         143.8719  130.2899  152.5157 C.3     1  UNL1        0.1764
     37 O         144.4069  130.6963  154.5278 O.2     1  UNL1       -0.1726
     38 O         141.8563  130.7875  152.9511 O.2     1  UNL1       -0.1726
@<TRIPOS>BOND
     1     8     7    1
     2     8     9    1
     3     9    10    1
     4    10    11   am
     5    11    12    2
     6    11    16    1
     7    16    17    1
     8    17    21    1
     9    21    22    1
    10    21    23    1
    11    21    24    1
    12    17    18    1
    13    18    19    1
    14    19    20    1
    15    10    13    1
    16    13    14    1
    17    14    15    1
    18    15     1    1
    19     1     2   ar
    20     2     3   ar
    21     3     4   ar
    22     4    25    1
    23    25    26    1
    24    26    27    1
    25    27    28   ar
    26    28    29   ar
    27    29    30   ar
    28    30    34    1
    29    34    35    1
    30    35    36    1
    31    35    37    2
    32    35    38    2
    33    30    31   ar
    34    31    32   ar
    35    32    33    1
    36     4     5   ar
    37     5     6   ar
    38    15     8    1
    39     6     1   ar
    40    20    17    1
    41    32    27   ar
@<TRIPOS>MOLECULE
*****
 38 41 0 0 0
SMALL
GASTEIGER

@<TRIPOS>ATOM
      1 C         140.2397  139.5674  161.9275 C.ar    1  UNL1        0.2204
      2 N         140.8848  140.3712  160.8377 N.ar    1  UNL1       -0.2089
      3 C         140.3967  140.2469  159.4248 C.ar    1  UNL1        0.1402
      4 C         139.2635  139.3187  159.1017 C.ar    1  UNL1        0.1773
      5 C         138.6184  138.5149  160.1915 C.ar    1  UNL1        0.1402
      6 N         139.1065  138.6392  161.6044 N.ar    1  UNL1       -0.2089
      7 C         141.7610  137.3125  163.1929 C.3     1  UNL1        0.0233
      8 C         141.4884  138.5643  163.9731 C.3     1  UNL1        0.0955
      9 C         141.9765  138.6887  165.3860 C.3     1  UNL1        0.1165
     10 N         141.7040  139.9405  166.1662 N.am    1  UNL1       -0.2426
     11 C         142.1921  140.0648  167.5791 C.2     1  UNL1        0.4052
     12 O         142.9527  138.9374  168.2118 O.2     1  UNL1       -0.2262
     13 C         140.9433  141.0679  165.5335 C.3     1  UNL1        0.1182
     14 C         140.4552  140.9435  164.1206 C.3     1  UNL1        0.1152
     15 N         140.7278  139.6917  163.3405 N.pl3   1  UNL1       -0.2764
     16 O         141.9195  141.3166  168.3593 O.3     1  UNL1       -0.4281
     17 C         141.8426  141.2655  169.8565 C.3     1  UNL1        0.2773
     18 C         140.4616  140.6871  169.7657 C.3     1  UNL1        0.1934
     19 O         140.3846  140.6360  171.2629 O.3     1  UNL1       -0.3456
     20 C         141.7656  141.2143  171.3537 C.3     1  UNL1        0.1934
     21 C         143.2236  141.8439  169.9472 C.3     1  UNL1        0.4354
     22 F         144.6047  142.4222  170.0379 F       1  UNL1       -0.1663
     23 F         142.7419  143.0985  169.2811 F       1  UNL1       -0.1663
     24 F         143.7053  140.5891  170.6133 F       1  UNL1       -0.1663
     25 O         138.7754  139.1944  157.6888 O.3     1  UNL1       -0.4674
     26 C         139.7559  139.1966  156.5536 C.3     1  UNL1        0.2344
     27 C         140.6664  138.0227  156.3468 C.ar    1  UNL1        0.0486
     28 C         142.0575  138.0445  156.9076 C.ar    1  UNL1        0.0013
     29 C         142.9680  136.8705  156.7007 C.ar    1  UNL1       -0.0026
     30 C         142.4875  135.6748  155.9330 C.ar    1  UNL1        0.0035
     31 C         141.0965  135.6531  155.3722 C.ar    1  UNL1        0.0269
     32 C         140.1859  136.8270  155.5790 C.ar    1  UNL1        0.1393
     33 F         138.7949  136.8052  155.0182 F       1  UNL1       -0.2044
     34 C         143.3980  134.5009  155.7261 C.3     1  UNL1        0.1773
     35 S         142.8618  133.1053  155.8475 S.O2    1  UNL1       -0.0040
     36 C         142.3256  131.7097  155.9688 C.3     1  UNL1        0.1764
     37 O         142.9431  132.9446  154.3583 O.2     1  UNL1       -0.1726
     38 O         142.7805  133.2660  157.3366 O.2     1  UNL1       -0.1726
@<TRIPOS>BOND
     1     8     7    1
     2     8     9    1
     3     9    10    1
     4    10    11   am
     5    11    12    2
     6    11    16    1
     7    16    17    1
     8    17    21    1
     9    21    22    1
    10    21    23    1
    11    21    24    1
    12    17    18    1
    13    18    19    1
    14    19    20    1
    15    10    13    1
    16    13    14    1
    17    14    15    1
    18    15     1    1
    19     1     2   ar
    20     2     3   ar
    21     3     4   ar
    22     4    25    1
    23    25    26    1
    24    26    27    1
    25    27    28   ar
    26    28    29   ar
    27    29    30   ar
    28    30    34    1
    29    34    35    1
    30    35    36    1
    31    35    37    2
    32    35    38    2
    33    30    31   ar
    34    31    32   ar
    35    32    33    1
    36     4     5   ar
    37     5     6   ar
    38    15     8    1
    39     6     1   ar
    40    20    17    1
    41    32    27   ar
@<TRIPOS>MOLECULE
*****
 38 41 0 0 0
SMALL
GASTEIGER

@<TRIPOS>ATOM
      1 C         142.2810  139.2931  162.1568 C.ar    1  UNL1        0.2204
      2 N         141.2271  139.8672  161.2570 N.ar    1  UNL1       -0.2089
      3 C         141.0679  139.3449  159.8600 C.ar    1  UNL1        0.1402
      4 C         141.9626  138.2485  159.3626 C.ar    1  UNL1        0.1773
      5 C         143.0166  137.6744  160.2624 C.ar    1  UNL1        0.1402
      6 N         143.1758  138.1967  161.6596 N.ar    1  UNL1       -0.2089
      7 C         143.7123  141.8860  162.6349 C.3     1  UNL1        0.0233
      8 C         143.1558  141.1118  163.7930 C.3     1  UNL1        0.0955
      9 C         143.3150  141.6341  165.1900 C.3     1  UNL1        0.1165
     10 N         142.7585  140.8600  166.3481 N.am    1  UNL1       -0.2426
     11 C         142.9177  141.3824  167.7452 C.2     1  UNL1        0.4052
     12 O         143.6333  142.6788  167.9842 O.2     1  UNL1       -0.2262
     13 C         142.0429  139.5636  166.1091 C.3     1  UNL1        0.1182
     14 C         141.8837  139.0413  164.7120 C.3     1  UNL1        0.1152
     15 N         142.4402  139.8154  163.5540 N.pl3   1  UNL1       -0.2764
     16 O         142.3612  140.6082  168.9033 O.3     1  UNL1       -0.4281
     17 C         141.3475  141.2405  169.8102 C.3     1  UNL1        0.2773
     18 C         142.4239  141.5245  170.8154 C.3     1  UNL1        0.1934
     19 O         141.4102  142.1568  171.7225 O.3     1  UNL1       -0.3456
     20 C         140.3337  141.8727  170.7173 C.3     1  UNL1        0.1934
     21 C         140.2710  140.9564  168.8050 C.3     1  UNL1        0.4354
     22 F         139.1944  140.6725  167.7998 F       1  UNL1       -0.1663
     23 F         140.4625  139.4838  169.0161 F       1  UNL1       -0.1663
     24 F         140.0795  142.4292  168.5940 F       1  UNL1       -0.1663
     25 O         141.8034  137.7262  157.9656 O.3     1  UNL1       -0.4674
     26 C         142.9131  136.9457  157.3256 C.3     1  UNL1        0.2344
     27 C         142.6678  135.5438  156.8521 C.ar    1  UNL1        0.0486
     28 C         143.4045  134.3994  157.4828 C.ar    1  UNL1        0.0013
     29 C         143.1591  132.9974  157.0092 C.ar    1  UNL1       -0.0026
     30 C         142.1772  132.7398  155.9050 C.ar    1  UNL1        0.0035
     31 C         141.4405  133.8841  155.2743 C.ar    1  UNL1        0.0269
     32 C         141.6858  135.2861  155.7478 C.ar    1  UNL1        0.1393
     33 F         140.9491  136.4305  155.1172 F       1  UNL1       -0.2044
     34 C         141.9319  131.3378  155.4314 C.3     1  UNL1        0.1773
     35 S         141.7616  131.0597  153.9673 S.O2    1  UNL1       -0.0040
     36 C         141.5914  130.7816  152.5032 C.3     1  UNL1        0.1764
     37 O         143.2210  131.3270  153.7468 O.2     1  UNL1       -0.1726
     38 O         140.3022  130.7924  154.1878 O.2     1  UNL1       -0.1726
@<TRIPOS>BOND
     1     8     7    1
     2     8     9    1
     3     9    10    1
     4    10    11   am
     5    11    12    2
     6    11    16    1
     7    16    17    1
     8    17    21    1
     9    21    22    1
    10    21    23    1
    11    21    24    1
    12    17    18    1
    13    18    19    1
    14    19    20    1
    15    10    13    1
    16    13    14    1
    17    14    15    1
    18    15     1    1
    19     1     2   ar
    20     2     3   ar
    21     3     4   ar
    22     4    25    1
    23    25    26    1
    24    26    27    1
    25    27    28   ar
    26    28    29   ar
    27    29    30   ar
    28    30    34    1
    29    34    35    1
    30    35    36    1
    31    35    37    2
    32    35    38    2
    33    30    31   ar
    34    31    32   ar
    35    32    33    1
    36     4     5   ar
    37     5     6   ar
    38    15     8    1
    39     6     1   ar
    40    20    17    1
    41    32    27   ar
