@<TRIPOS>MOLECULE
*****
 30 32 0 0 0
SMALL
GASTEIGER

@<TRIPOS>ATOM
      1 C         142.2356  141.7687  167.0286 C.3     1  UNL1        0.0032
      2 C         141.1786  142.6973  166.5088 C.3     1  UNL1        0.0192
      3 C         140.1696  142.2037  165.5147 C.3     1  UNL1        0.0954
      4 N         140.2176  140.7815  165.0404 N.3     1  UNL1       -0.1594
      5 C         141.2746  139.8528  165.5602 C.3     1  UNL1        0.0954
      6 C         142.2836  140.3464  166.5543 C.3     1  UNL1        0.0192
      7 S         139.2085  140.2879  164.0462 S.O2    1  UNL1        0.0455
      8 O         140.2702  140.2506  162.9873 O.2     1  UNL1       -0.1572
      9 O         138.1469  140.3253  165.1052 O.2     1  UNL1       -0.1572
     10 C         138.1996  139.7944  163.0521 C.3     1  UNL1        0.1897
     11 C         138.3143  140.1872  161.6090 C.3     1  UNL1        0.1148
     12 C         138.8928  138.8046  161.5494 C.3     1  UNL1        0.0546
     13 C         139.3714  138.2475  160.2414 C.3     1  UNL1        0.1440
     14 O         139.2713  139.0732  158.9931 O.3     1  UNL1       -0.3537
     15 C         138.6927  140.4559  159.0527 C.3     1  UNL1        0.1440
     16 C         138.2142  141.0128  160.3607 C.3     1  UNL1        0.0546
     17 N         137.6959  141.4334  162.1699 N.am    1  UNL1       -0.1661
     18 O         136.4914  141.3385  163.0588 O.3     1  UNL1       -0.2915
     19 C         138.2820  142.7746  161.8417 C.2     1  UNL1        0.3268
     20 O         137.6636  144.0208  162.4026 O.2     1  UNL1       -0.2627
     21 H         136.2431  140.4072  163.1686 H       1  UNL1        0.2417
     22 C         143.2447  142.2622  168.0227 C.3     1  UNL1        0.0049
     23 C         142.9002  142.3066  169.4819 C.3     1  UNL1        0.0305
     24 C         142.0449  139.2288  170.1487 C.3     1  UNL1        0.0553
     25 C         141.1572  140.4332  170.2547 C.ar    1  UNL1        0.0966
     26 N         139.7204  140.4344  170.6858 N.ar    1  UNL1       -0.0821
     27 O         139.2256  141.8499  170.6458 O.2     1  UNL1       -0.3584
     28 C         140.3566  142.7236  170.1899 C.ar    1  UNL1        0.1504
     29 C         140.3032  144.2115  170.0077 C.3     1  UNL1        0.0750
     30 C         141.5503  141.8479  169.9482 C.ar    1  UNL1        0.0274
@<TRIPOS>BOND
     1    24    25    1
     2    25    26   ar
     3    26    27   ar
     4    27    28   ar
     5    28    29    1
     6    28    30   ar
     7    30    23    1
     8    23    22    1
     9    22     1    1
    10     1     2    1
    11     2     3    1
    12     3     4    1
    13     4     7    1
    14     7     8    2
    15     7     9    2
    16     7    10    1
    17    10    11    1
    18    11    17    1
    19    17    18    1
    20    17    19   am
    21    19    20    2
    22    11    12    1
    23    12    13    1
    24    13    14    1
    25    14    15    1
    26    15    16    1
    27     4     5    1
    28     5     6    1
    29    30    25   ar
    30     6     1    1
    31    16    11    1
    32    18    21    1
@<TRIPOS>MOLECULE
*****
 30 32 0 0 0
SMALL
GASTEIGER

@<TRIPOS>ATOM
      1 C         142.5927  141.4868  166.8673 C.3     1  UNL1        0.0032
      2 C         143.0081  140.0512  166.7384 C.3     1  UNL1        0.0192
      3 C         142.4291  139.1979  165.6491 C.3     1  UNL1        0.0954
      4 N         141.4348  139.7802  164.6887 N.3     1  UNL1       -0.1594
      5 C         141.0194  141.2157  164.8176 C.3     1  UNL1        0.0954
      6 C         141.5984  142.0690  165.9069 C.3     1  UNL1        0.0192
      7 S         140.8558  138.9268  163.5993 S.O2    1  UNL1        0.0455
      8 O         140.9229  137.7301  164.5012 O.2     1  UNL1       -0.1572
      9 O         140.7887  140.1235  162.6975 O.2     1  UNL1       -0.1572
     10 C         140.2768  138.0734  162.5101 C.3     1  UNL1        0.1897
     11 C         140.7664  138.2227  161.1001 C.3     1  UNL1        0.1148
     12 C         142.0620  137.9272  161.7958 C.3     1  UNL1        0.0546
     13 C         143.3382  137.8655  161.0100 C.3     1  UNL1        0.1440
     14 O         143.3187  138.0994  159.5285 O.3     1  UNL1       -0.3537
     15 C         142.0231  138.3949  158.8327 C.3     1  UNL1        0.1440
     16 C         140.7470  138.4565  159.6186 C.3     1  UNL1        0.0546
     17 N         139.3007  138.4663  160.8941 N.am    1  UNL1       -0.1661
     18 O         138.2916  137.6407  161.6357 O.3     1  UNL1       -0.2915
     19 C         138.8441  139.5357  159.9465 C.2     1  UNL1        0.3268
     20 O         137.3785  139.7794  159.7405 O.2     1  UNL1       -0.2627
     21 H         138.7507  137.0005  162.2017 H       1  UNL1        0.2417
     22 C         143.1717  142.3402  167.9566 C.3     1  UNL1        0.0049
     23 C         142.9739  141.9584  169.3936 C.3     1  UNL1        0.0305
     24 C         142.2321  138.8719  170.1502 C.3     1  UNL1        0.0553
     25 C         141.2967  140.0430  170.2084 C.ar    1  UNL1        0.0966
     26 N         139.8562  140.0011  170.6245 N.ar    1  UNL1       -0.0821
     27 O         139.3068  141.3940  170.5339 O.2     1  UNL1       -0.3584
     28 C         140.4079  142.2968  170.0617 C.ar    1  UNL1        0.1504
     29 C         140.2984  143.7749  169.8313 C.3     1  UNL1        0.0750
     30 C         141.6377  141.4617  169.8606 C.ar    1  UNL1        0.0274
@<TRIPOS>BOND
     1    24    25    1
     2    25    26   ar
     3    26    27   ar
     4    27    28   ar
     5    28    29    1
     6    28    30   ar
     7    30    23    1
     8    23    22    1
     9    22     1    1
    10     1     2    1
    11     2     3    1
    12     3     4    1
    13     4     7    1
    14     7     8    2
    15     7     9    2
    16     7    10    1
    17    10    11    1
    18    11    17    1
    19    17    18    1
    20    17    19   am
    21    19    20    2
    22    11    12    1
    23    12    13    1
    24    13    14    1
    25    14    15    1
    26    15    16    1
    27     4     5    1
    28     5     6    1
    29    30    25   ar
    30     6     1    1
    31    16    11    1
    32    18    21    1
@<TRIPOS>MOLECULE
*****
 30 32 0 0 0
SMALL
GASTEIGER

@<TRIPOS>ATOM
      1 C         142.6891  141.4489  166.8213 C.3     1  UNL1        0.0032
      2 C         141.5670  141.9889  165.9851 C.3     1  UNL1        0.0192
      3 C         140.9741  141.1489  164.8930 C.3     1  UNL1        0.0954
      4 N         141.5032  139.7688  164.6371 N.3     1  UNL1       -0.1594
      5 C         142.6253  139.2288  165.4733 C.3     1  UNL1        0.0954
      6 C         143.2182  140.0689  166.5654 C.3     1  UNL1        0.0192
      7 S         140.9102  138.9288  163.5450 S.O2    1  UNL1        0.0455
      8 O         140.9774  137.7237  164.4355 O.2     1  UNL1       -0.1572
      9 O         140.8430  140.1339  162.6545 O.2     1  UNL1       -0.1572
     10 C         140.3172  138.0887  162.4529 C.3     1  UNL1        0.1897
     11 C         140.7906  138.2533  161.0391 C.3     1  UNL1        0.1148
     12 C         142.0959  137.9632  161.7188 C.3     1  UNL1        0.0546
     13 C         143.3642  137.9186  160.9191 C.3     1  UNL1        0.1440
     14 O         143.3271  138.1641  159.4398 O.3     1  UNL1       -0.3537
     15 C         142.0217  138.4542  158.7601 C.3     1  UNL1        0.1440
     16 C         140.7535  138.4988  159.5599 C.3     1  UNL1        0.0546
     17 N         139.3208  138.4862  160.8505 N.am    1  UNL1       -0.1661
     18 O         138.3264  137.6267  161.5731 O.3     1  UNL1       -0.2915
     19 C         138.8455  139.5788  159.9392 C.2     1  UNL1        0.3268
     20 O         137.3758  139.8118  159.7506 O.2     1  UNL1       -0.2627
     21 H         138.7966  136.9748  162.1160 H       1  UNL1        0.2417
     22 C         143.2821  142.2890  167.9135 C.3     1  UNL1        0.0049
     23 C         143.0380  141.9330  169.3500 C.3     1  UNL1        0.0305
     24 C         140.2571  143.5897  169.7638 C.3     1  UNL1        0.0553
     25 C         140.4405  142.1133  169.9551 C.ar    1  UNL1        0.0966
     26 N         139.3781  141.1392  170.3702 N.ar    1  UNL1       -0.0821
     27 O         139.9997  139.7756  170.4365 O.2     1  UNL1       -0.3584
     28 C         141.4464  139.9070  170.0624 C.ar    1  UNL1        0.1504
     29 C         142.4452  138.7898  169.9972 C.3     1  UNL1        0.0750
     30 C         141.7188  141.3518  169.7649 C.ar    1  UNL1        0.0274
@<TRIPOS>BOND
     1    24    25    1
     2    25    26   ar
     3    26    27   ar
     4    27    28   ar
     5    28    29    1
     6    28    30   ar
     7    30    23    1
     8    23    22    1
     9    22     1    1
    10     1     2    1
    11     2     3    1
    12     3     4    1
    13     4     7    1
    14     7     8    2
    15     7     9    2
    16     7    10    1
    17    10    11    1
    18    11    17    1
    19    17    18    1
    20    17    19   am
    21    19    20    2
    22    11    12    1
    23    12    13    1
    24    13    14    1
    25    14    15    1
    26    15    16    1
    27     4     5    1
    28     5     6    1
    29    30    25   ar
    30     6     1    1
    31    16    11    1
    32    18    21    1
@<TRIPOS>MOLECULE
*****
 30 32 0 0 0
SMALL
GASTEIGER

@<TRIPOS>ATOM
      1 C         142.8826  139.5450  163.3593 C.3     1  UNL1        0.0032
      2 C         143.8852  138.8467  164.2294 C.3     1  UNL1        0.0192
      3 C         143.7294  138.8707  165.7211 C.3     1  UNL1        0.0954
      4 N         142.5710  139.5930  166.3426 N.3     1  UNL1       -0.1594
      5 C         141.5683  140.2912  165.4725 C.3     1  UNL1        0.0954
      6 C         141.7241  140.2672  163.9809 C.3     1  UNL1        0.0192
      7 S         142.4152  139.6170  167.8344 S.O2    1  UNL1        0.0455
      8 O         143.3743  138.4698  167.9529 O.2     1  UNL1       -0.1572
      9 O         141.4561  140.7641  167.7158 O.2     1  UNL1       -0.1572
     10 C         142.2595  139.6409  169.3261 C.3     1  UNL1        0.1897
     11 C         141.5684  140.7951  169.9896 C.3     1  UNL1        0.1148
     12 C         140.3773  140.0018  169.5403 C.3     1  UNL1        0.0546
     13 C         138.9922  140.4990  169.8306 C.3     1  UNL1        0.1440
     14 O         138.7983  141.7895  170.5701 O.3     1  UNL1       -0.3537
     15 C         139.9894  142.5829  171.0194 C.3     1  UNL1        0.1440
     16 C         141.3744  142.0856  170.7291 C.3     1  UNL1        0.0546
     17 N         142.9996  141.1876  170.2084 N.am    1  UNL1       -0.1661
     18 O         143.9439  140.2359  170.8811 O.3     1  UNL1       -0.2915
     19 C         143.4864  142.5319  169.7545 C.2     1  UNL1        0.3268
     20 O         144.9175  142.9243  169.9733 O.2     1  UNL1       -0.2627
     21 H         143.4724  139.4194  171.1088 H       1  UNL1        0.2417
     22 C         143.0384  139.5210  161.8676 C.3     1  UNL1        0.0049
     23 C         143.9267  140.5218  161.1901 C.3     1  UNL1        0.0305
     24 C         142.0183  142.9220  160.0737 C.3     1  UNL1        0.0553
     25 C         143.0636  143.0512  161.1416 C.ar    1  UNL1        0.0966
     26 N         143.4152  144.3063  161.8840 N.ar    1  UNL1       -0.0821
     27 O         144.5098  143.9788  162.8560 O.2     1  UNL1       -0.3584
     28 C         144.8347  142.5212  162.7143 C.ar    1  UNL1        0.1504
     29 C         145.8713  141.7690  163.4951 C.3     1  UNL1        0.0750
     30 C         143.9408  141.9480  161.6548 C.ar    1  UNL1        0.0274
@<TRIPOS>BOND
     1    24    25    1
     2    25    26   ar
     3    26    27   ar
     4    27    28   ar
     5    28    29    1
     6    28    30   ar
     7    30    23    1
     8    23    22    1
     9    22     1    1
    10     1     2    1
    11     2     3    1
    12     3     4    1
    13     4     7    1
    14     7     8    2
    15     7     9    2
    16     7    10    1
    17    10    11    1
    18    11    17    1
    19    17    18    1
    20    17    19   am
    21    19    20    2
    22    11    12    1
    23    12    13    1
    24    13    14    1
    25    14    15    1
    26    15    16    1
    27     4     5    1
    28     5     6    1
    29    30    25   ar
    30     6     1    1
    31    16    11    1
    32    18    21    1
@<TRIPOS>MOLECULE
*****
 30 32 0 0 0
SMALL
GASTEIGER

@<TRIPOS>ATOM
      1 C         142.4785  141.5378  167.0896 C.3     1  UNL1        0.0032
      2 C         141.2907  142.0888  166.3580 C.3     1  UNL1        0.0192
      3 C         140.5637  141.2376  165.3596 C.3     1  UNL1        0.0954
      4 N         141.0246  139.8353  165.0928 N.3     1  UNL1       -0.1594
      5 C         142.2124  139.2842  165.8244 C.3     1  UNL1        0.0954
      6 C         142.9394  140.1355  166.8228 C.3     1  UNL1        0.0192
      7 S         140.2975  138.9841  164.0943 S.O2    1  UNL1        0.0455
      8 O         140.4841  137.7872  164.9789 O.2     1  UNL1       -0.1572
      9 O         140.1109  140.1810  163.2098 O.2     1  UNL1       -0.1572
     10 C         139.5705  138.1329  163.0960 C.3     1  UNL1        0.1897
     11 C         139.6542  138.4551  161.6334 C.3     1  UNL1        0.1148
     12 C         138.2721  138.9559  161.9317 C.3     1  UNL1        0.0546
     13 C         137.4437  139.5662  160.8403 C.3     1  UNL1        0.1440
     14 O         137.9974  139.6756  159.4505 O.3     1  UNL1       -0.3537
     15 C         139.3795  139.1748  159.1522 C.3     1  UNL1        0.1440
     16 C         140.2078  138.5646  160.2436 C.3     1  UNL1        0.0546
     17 N         141.0072  137.8424  161.8430 N.am    1  UNL1       -0.1661
     18 O         141.1456  136.5902  162.6571 O.3     1  UNL1       -0.2915
     19 C         142.2220  138.4820  161.2385 C.2     1  UNL1        0.3268
     20 O         143.5750  137.8693  161.4481 O.2     1  UNL1       -0.2627
     21 H         140.2716  136.3108  162.9716 H       1  UNL1        0.2417
     22 C         143.2056  142.3890  168.0881 C.3     1  UNL1        0.0049
     23 C         142.8636  142.2934  169.5454 C.3     1  UNL1        0.0305
     24 C         141.9905  139.2159  170.1905 C.3     1  UNL1        0.0553
     25 C         141.0980  140.4193  170.2636 C.ar    1  UNL1        0.0966
     26 N         139.6476  140.4194  170.6460 N.ar    1  UNL1       -0.0821
     27 O         139.1524  141.8341  170.5858 O.2     1  UNL1       -0.3584
     28 C         140.2969  142.7083  170.1661 C.ar    1  UNL1        0.1504
     29 C         140.2476  144.1957  169.9786 C.3     1  UNL1        0.0750
     30 C         141.4993  141.8338  169.9670 C.ar    1  UNL1        0.0274
@<TRIPOS>BOND
     1    24    25    1
     2    25    26   ar
     3    26    27   ar
     4    27    28   ar
     5    28    29    1
     6    28    30   ar
     7    30    23    1
     8    23    22    1
     9    22     1    1
    10     1     2    1
    11     2     3    1
    12     3     4    1
    13     4     7    1
    14     7     8    2
    15     7     9    2
    16     7    10    1
    17    10    11    1
    18    11    17    1
    19    17    18    1
    20    17    19   am
    21    19    20    2
    22    11    12    1
    23    12    13    1
    24    13    14    1
    25    14    15    1
    26    15    16    1
    27     4     5    1
    28     5     6    1
    29    30    25   ar
    30     6     1    1
    31    16    11    1
    32    18    21    1
@<TRIPOS>MOLECULE
*****
 30 32 0 0 0
SMALL
GASTEIGER

@<TRIPOS>ATOM
      1 C         142.4438  139.9405  167.1829 C.3     1  UNL1        0.0032
      2 C         143.2494  141.0903  166.6549 C.3     1  UNL1        0.0192
      3 C         142.9191  141.6864  165.3187 C.3     1  UNL1        0.0954
      4 N         141.7832  141.1327  164.5105 N.3     1  UNL1       -0.1594
      5 C         140.9776  139.9829  165.0386 C.3     1  UNL1        0.0954
      6 C         141.3079  139.3868  166.3748 C.3     1  UNL1        0.0192
      7 S         141.4528  141.7289  163.1742 S.O2    1  UNL1        0.0455
      8 O         141.9523  143.0623  163.6457 O.2     1  UNL1       -0.1572
      9 O         140.9533  140.3954  162.7028 O.2     1  UNL1       -0.1572
     10 C         141.1225  142.3251  161.8381 C.3     1  UNL1        0.1897
     11 C         140.6924  143.7588  161.7422 C.3     1  UNL1        0.1148
     12 C         139.4805  143.1666  162.3983 C.3     1  UNL1        0.0546
     13 C         138.3112  144.0410  162.7423 C.3     1  UNL1        0.1440
     14 O         138.3539  145.5075  162.4301 O.3     1  UNL1       -0.3537
     15 C         139.5658  146.0997  161.7739 C.3     1  UNL1        0.1440
     16 C         140.7350  145.2253  161.4300 C.3     1  UNL1        0.0546
     17 N         142.0537  143.8531  161.1193 N.am    1  UNL1       -0.1661
     18 O         143.0909  144.7573  161.7165 O.3     1  UNL1       -0.2915
     19 C         142.3779  143.0430  159.8991 C.2     1  UNL1        0.3268
     20 O         143.7392  143.1373  159.2763 O.2     1  UNL1       -0.2627
     21 H         142.7212  145.2042  162.4940 H       1  UNL1        0.2417
     22 C         142.7742  139.3443  168.5192 C.3     1  UNL1        0.0049
     23 C         141.9495  139.6958  169.7218 C.3     1  UNL1        0.0305
     24 C         143.8241  142.3557  169.9666 C.3     1  UNL1        0.0553
     25 C         142.3256  142.3248  170.0258 C.ar    1  UNL1        0.0966
     26 N         141.4257  143.5109  170.2079 N.ar    1  UNL1       -0.0821
     27 O         140.0078  143.0214  170.2079 O.2     1  UNL1       -0.3584
     28 C         140.0315  141.5326  170.0258 C.ar    1  UNL1        0.1504
     29 C         138.8330  140.6325  169.9667 C.3     1  UNL1        0.0750
     30 C         141.4640  141.1022  169.9133 C.ar    1  UNL1        0.0274
@<TRIPOS>BOND
     1    24    25    1
     2    25    26   ar
     3    26    27   ar
     4    27    28   ar
     5    28    29    1
     6    28    30   ar
     7    30    23    1
     8    23    22    1
     9    22     1    1
    10     1     2    1
    11     2     3    1
    12     3     4    1
    13     4     7    1
    14     7     8    2
    15     7     9    2
    16     7    10    1
    17    10    11    1
    18    11    17    1
    19    17    18    1
    20    17    19   am
    21    19    20    2
    22    11    12    1
    23    12    13    1
    24    13    14    1
    25    14    15    1
    26    15    16    1
    27     4     5    1
    28     5     6    1
    29    30    25   ar
    30     6     1    1
    31    16    11    1
    32    18    21    1
@<TRIPOS>MOLECULE
*****
 30 32 0 0 0
SMALL
GASTEIGER

@<TRIPOS>ATOM
      1 C         142.0750  140.6460  166.9297 C.3     1  UNL1        0.0032
      2 C         142.9669  141.6949  166.3346 C.3     1  UNL1        0.0192
      3 C         142.4388  142.6149  165.2741 C.3     1  UNL1        0.0954
      4 N         141.0187  142.4859  164.8087 N.3     1  UNL1       -0.1594
      5 C         140.1267  141.4370  165.4038 C.3     1  UNL1        0.0954
      6 C         140.6549  140.5171  166.4643 C.3     1  UNL1        0.0192
      7 S         140.4905  143.4059  163.7481 S.O2    1  UNL1        0.0455
      8 O         141.3659  142.7358  162.7310 O.2     1  UNL1       -0.1572
      9 O         139.6151  144.0760  164.7652 O.2     1  UNL1       -0.1572
     10 C         139.9625  144.3259  162.6876 C.3     1  UNL1        0.1897
     11 C         139.6880  143.8020  161.3091 C.3     1  UNL1        0.1148
     12 C         141.0288  144.4359  161.0847 C.3     1  UNL1        0.0546
     13 C         141.6627  144.3889  159.7259 C.3     1  UNL1        0.1440
     14 O         140.9556  143.7081  158.5917 O.3     1  UNL1       -0.3537
     15 C         139.6147  143.0743  158.8161 C.3     1  UNL1        0.1440
     16 C         138.9810  143.1212  160.1748 C.3     1  UNL1        0.0546
     17 N         138.4425  143.3501  162.0123 N.am    1  UNL1       -0.1661
     18 O         137.5248  144.3597  162.6356 O.3     1  UNL1       -0.2915
     19 C         138.1146  141.8885  162.0921 C.2     1  UNL1        0.3268
     20 O         136.8691  141.4366  162.7952 O.2     1  UNL1       -0.2627
     21 H         137.8808  145.2509  162.4944 H       1  UNL1        0.2417
     22 C         142.6031  139.7260  167.9903 C.3     1  UNL1        0.0049
     23 C         142.3127  140.0026  169.4356 C.3     1  UNL1        0.0305
     24 C         139.2179  140.8674  170.0048 C.3     1  UNL1        0.0553
     25 C         140.4181  141.7596  170.1206 C.ar    1  UNL1        0.0966
     26 N         140.4066  143.2058  170.5183 N.ar    1  UNL1       -0.0821
     27 O         141.8220  143.7022  170.5025 O.2     1  UNL1       -0.3584
     28 C         142.7084  142.5627  170.0950 C.ar    1  UNL1        0.1504
     29 C         144.2003  142.6147  169.9492 C.3     1  UNL1        0.0750
     30 C         141.8406  141.3621  169.8590 C.ar    1  UNL1        0.0274
@<TRIPOS>BOND
     1    24    25    1
     2    25    26   ar
     3    26    27   ar
     4    27    28   ar
     5    28    29    1
     6    28    30   ar
     7    30    23    1
     8    23    22    1
     9    22     1    1
    10     1     2    1
    11     2     3    1
    12     3     4    1
    13     4     7    1
    14     7     8    2
    15     7     9    2
    16     7    10    1
    17    10    11    1
    18    11    17    1
    19    17    18    1
    20    17    19   am
    21    19    20    2
    22    11    12    1
    23    12    13    1
    24    13    14    1
    25    14    15    1
    26    15    16    1
    27     4     5    1
    28     5     6    1
    29    30    25   ar
    30     6     1    1
    31    16    11    1
    32    18    21    1
@<TRIPOS>MOLECULE
*****
 30 32 0 0 0
SMALL
GASTEIGER

@<TRIPOS>ATOM
      1 C         142.3055  139.8021  167.2510 C.3     1  UNL1        0.0032
      2 C         143.3325  140.6923  166.6163 C.3     1  UNL1        0.0192
      3 C         143.0577  141.3227  165.2833 C.3     1  UNL1        0.0954
      4 N         141.7558  141.0629  164.5850 N.3     1  UNL1       -0.1594
      5 C         140.7288  140.1728  165.2197 C.3     1  UNL1        0.0954
      6 C         141.0037  139.5424  166.5527 C.3     1  UNL1        0.0192
      7 S         141.4809  141.6934  163.2519 S.O2    1  UNL1        0.0455
      8 O         140.8609  140.4137  162.7746 O.2     1  UNL1       -0.1572
      9 O         142.1010  142.9731  163.7292 O.2     1  UNL1       -0.1572
     10 C         141.2061  142.3238  161.9189 C.3     1  UNL1        0.1897
     11 C         140.7073  143.7365  161.8459 C.3     1  UNL1        0.1148
     12 C         139.5205  143.0737  162.4800 C.3     1  UNL1        0.0546
     13 C         138.3072  143.8834  162.8298 C.3     1  UNL1        0.1440
     14 O         138.2808  145.3559  162.5453 O.3     1  UNL1       -0.3537
     15 C         139.4675  146.0188  161.9111 C.3     1  UNL1        0.1440
     16 C         140.6808  145.2090  161.5614 C.3     1  UNL1        0.0546
     17 N         142.0673  143.9087  161.2370 N.am    1  UNL1       -0.1661
     18 O         143.0600  144.8385  161.8695 O.3     1  UNL1       -0.2915
     19 C         142.4347  143.1510  159.9957 C.2     1  UNL1        0.3268
     20 O         143.7947  143.3232  159.3868 O.2     1  UNL1       -0.2627
     21 H         142.6659  145.2451  162.6571 H       1  UNL1        0.2417
     22 C         142.5804  139.1716  168.5841 C.3     1  UNL1        0.0049
     23 C         142.0004  139.7707  169.8309 C.3     1  UNL1        0.0305
     24 C         138.8615  140.6622  169.7869 C.3     1  UNL1        0.0553
     25 C         140.0410  141.5887  169.7961 C.ar    1  UNL1        0.0966
     26 N         139.9850  143.0876  169.7866 N.ar    1  UNL1       -0.0821
     27 O         141.3932  143.6043  169.8010 O.2     1  UNL1       -0.3584
     28 C         142.3196  142.4246  169.8194 C.ar    1  UNL1        0.1504
     29 C         143.8184  142.4808  169.8376 C.3     1  UNL1        0.0750
     30 C         141.4838  141.1790  169.8163 C.ar    1  UNL1        0.0274
@<TRIPOS>BOND
     1    24    25    1
     2    25    26   ar
     3    26    27   ar
     4    27    28   ar
     5    28    29    1
     6    28    30   ar
     7    30    23    1
     8    23    22    1
     9    22     1    1
    10     1     2    1
    11     2     3    1
    12     3     4    1
    13     4     7    1
    14     7     8    2
    15     7     9    2
    16     7    10    1
    17    10    11    1
    18    11    17    1
    19    17    18    1
    20    17    19   am
    21    19    20    2
    22    11    12    1
    23    12    13    1
    24    13    14    1
    25    14    15    1
    26    15    16    1
    27     4     5    1
    28     5     6    1
    29    30    25   ar
    30     6     1    1
    31    16    11    1
    32    18    21    1
@<TRIPOS>MOLECULE
*****
 30 32 0 0 0
SMALL
GASTEIGER

@<TRIPOS>ATOM
      1 C         142.0963  140.1945  167.4195 C.3     1  UNL1        0.0032
      2 C         140.7838  139.8622  166.7737 C.3     1  UNL1        0.0192
      3 C         140.3711  140.5599  165.5117 C.3     1  UNL1        0.0954
      4 N         141.2708  141.5899  164.8954 N.3     1  UNL1       -0.1594
      5 C         142.5832  141.9221  165.5412 C.3     1  UNL1        0.0954
      6 C         142.9960  141.2244  166.8032 C.3     1  UNL1        0.0192
      7 S         140.8580  142.2876  163.6333 S.O2    1  UNL1        0.0455
      8 O         142.1714  143.0115  163.6040 O.2     1  UNL1       -0.1572
      9 O         139.5446  141.5636  163.6626 O.2     1  UNL1       -0.1572
     10 C         140.4452  142.9853  162.3713 C.3     1  UNL1        0.1897
     11 C         141.3902  143.0531  161.2083 C.3     1  UNL1        0.1148
     12 C         141.1655  141.5716  161.2753 C.3     1  UNL1        0.0546
     13 C         141.8498  140.6641  160.2963 C.3     1  UNL1        0.1440
     14 O         142.7588  141.2384  159.2504 O.3     1  UNL1       -0.3537
     15 C         142.9835  142.7199  159.1834 C.3     1  UNL1        0.1440
     16 C         142.2992  143.6272  160.1624 C.3     1  UNL1        0.0546
     17 N         141.2867  144.5111  161.5452 N.am    1  UNL1       -0.1661
     18 O         142.5047  145.2673  161.9864 O.3     1  UNL1       -0.2915
     19 C         139.9651  145.2130  161.4410 C.2     1  UNL1        0.3268
     20 O         139.8616  146.6710  161.7779 O.2     1  UNL1       -0.2627
     21 H         143.2689  144.6701  161.9996 H       1  UNL1        0.2417
     22 C         142.5091  139.4968  168.6816 C.3     1  UNL1        0.0049
     23 C         142.0320  140.0048  170.0099 C.3     1  UNL1        0.0305
     24 C         143.5395  142.8923  170.2070 C.3     1  UNL1        0.0553
     25 C         142.0560  142.6713  170.1950 C.ar    1  UNL1        0.0966
     26 N         141.0049  143.7387  170.2715 N.ar    1  UNL1       -0.0821
     27 O         139.6622  143.0711  170.2281 O.2     1  UNL1       -0.3584
     28 C         139.8836  141.5910  170.1249 C.ar    1  UNL1        0.1504
     29 C         138.8135  140.5423  170.0545 C.3     1  UNL1        0.0750
     30 C         141.3630  141.3440  170.1044 C.ar    1  UNL1        0.0274
@<TRIPOS>BOND
     1    24    25    1
     2    25    26   ar
     3    26    27   ar
     4    27    28   ar
     5    28    29    1
     6    28    30   ar
     7    30    23    1
     8    23    22    1
     9    22     1    1
    10     1     2    1
    11     2     3    1
    12     3     4    1
    13     4     7    1
    14     7     8    2
    15     7     9    2
    16     7    10    1
    17    10    11    1
    18    11    17    1
    19    17    18    1
    20    17    19   am
    21    19    20    2
    22    11    12    1
    23    12    13    1
    24    13    14    1
    25    14    15    1
    26    15    16    1
    27     4     5    1
    28     5     6    1
    29    30    25   ar
    30     6     1    1
    31    16    11    1
    32    18    21    1
