@<TRIPOS>MOLECULE
*****
 29 31 0 0 0
SMALL
GASTEIGER

@<TRIPOS>ATOM
      1 C         140.6783  141.7242  167.7419 C.ar    1  UNL1        0.0519
      2 C         140.5784  142.0472  169.2033 C.ar    1  UNL1        0.0853
      3 C         139.6491  141.2641  170.0826 C.ar    1  UNL1        0.1045
      4 N         138.8197  140.1582  169.5005 N.ar    1  UNL1       -0.2436
      5 C         138.9196  139.8352  168.0391 C.ar    1  UNL1        0.0825
      6 C         138.0901  138.7292  167.4570 C.ar    1  UNL1        0.0192
      7 C         138.1900  138.4063  165.9956 C.ar    1  UNL1        0.0031
      8 C         139.1193  139.1893  165.1163 C.ar    1  UNL1        0.0195
      9 C         139.9488  140.2953  165.6984 C.ar    1  UNL1        0.0043
     10 C         139.8489  140.6182  167.1597 C.ar    1  UNL1        0.0310
     11 C         139.2192  138.8663  163.6548 C.ar    1  UNL1        0.1029
     12 C         138.1962  139.4009  162.6970 C.ar    1  UNL1        0.0226
     13 C         138.2961  139.0780  161.2355 C.ar    1  UNL1        0.0241
     14 C         139.4190  138.2203  160.7320 C.ar    1  UNL1        0.1222
     15 N         140.4421  137.6857  161.6900 N.ar    1  UNL1       -0.1464
     16 N         140.3422  138.0087  163.1513 N.ar    1  UNL1       -0.1480
     17 C         141.4079  143.1532  169.7854 C.2     1  UNL1        0.2455
     18 N         140.7452  144.3971  170.2988 N.am    1  UNL1       -0.3252
     19 O         142.8999  143.0153  169.8541 O.2     1  UNL1       -0.2703
     20 H         139.7659  144.4876  170.2537 H       1  UNL1        0.1453
     21 H         141.2896  145.1230  170.6809 H       1  UNL1        0.1453
     22 N         141.6076  142.5073  166.8625 N.pl3   1  UNL1       -0.3325
     23 H         141.2751  143.2926  166.3707 H       1  UNL1        0.1468
     24 C         143.0437  142.0938  166.7327 C.3     1  UNL1        0.0870
     25 C         143.7696  142.3011  165.4365 C.3     1  UNL1        0.0195
     26 C         145.1904  140.6739  163.9931 C.3     1  UNL1        0.0001
     27 C         143.8521  141.1862  164.4365 C.3     1  UNL1        0.0017
     28 C         144.4129  143.6234  165.1403 C.3     1  UNL1        0.0017
     29 C         143.7551  144.5819  164.1923 C.3     1  UNL1        0.0001
@<TRIPOS>BOND
     1    26    27    1
     2    27    25    1
     3    25    28    1
     4    28    29    1
     5    25    24    1
     6    24    22    1
     7    22     1    1
     8     1     2   ar
     9     2    17    1
    10    17    18   am
    11    17    19    2
    12     2     3   ar
    13     3     4   ar
    14     4     5   ar
    15     5     6   ar
    16     6     7   ar
    17     7     8   ar
    18     8    11    1
    19    11    12   ar
    20    12    13   ar
    21    13    14   ar
    22    14    15   ar
    23    15    16   ar
    24     8     9   ar
    25     9    10   ar
    26    10     1   ar
    27    10     5   ar
    28    16    11   ar
    29    22    23    1
    30    18    20    1
    31    18    21    1
@<TRIPOS>MOLECULE
*****
 29 31 0 0 0
SMALL
GASTEIGER

@<TRIPOS>ATOM
      1 C         141.5062  139.0321  163.9799 C.ar    1  UNL1        0.0519
      2 C         141.1940  138.3016  162.7075 C.ar    1  UNL1        0.0853
      3 C         139.8646  137.6283  162.5360 C.ar    1  UNL1        0.1045
      4 N         138.8474  137.6855  163.6369 N.ar    1  UNL1       -0.2436
      5 C         139.1596  138.4160  164.9094 C.ar    1  UNL1        0.0825
      6 C         138.1424  138.4732  166.0102 C.ar    1  UNL1        0.0192
      7 C         138.4546  139.2036  167.2826 C.ar    1  UNL1        0.0031
      8 C         139.7840  139.8769  167.4541 C.ar    1  UNL1        0.0195
      9 C         140.8012  139.8197  166.3532 C.ar    1  UNL1        0.0043
     10 C         140.4890  139.0893  165.0808 C.ar    1  UNL1        0.0310
     11 C         140.0961  140.6074  168.7265 C.ar    1  UNL1        0.1029
     12 C         140.5457  142.0376  168.6793 C.ar    1  UNL1        0.0226
     13 C         140.8578  142.7681  169.9517 C.ar    1  UNL1        0.0241
     14 C         140.7204  142.0683  171.2713 C.ar    1  UNL1        0.1222
     15 N         140.2709  140.6379  171.3185 N.ar    1  UNL1       -0.1464
     16 N         139.9588  139.9075  170.0461 N.ar    1  UNL1       -0.1480
     17 C         142.2113  138.2444  161.6065 C.2     1  UNL1        0.2455
     18 N         141.8139  138.5820  160.2001 N.am    1  UNL1       -0.3252
     19 O         143.6257  137.8497  161.9121 O.2     1  UNL1       -0.2703
     20 H         140.8855  138.8410  159.9995 H       1  UNL1        0.1453
     21 H         142.4815  138.5444  159.4775 H       1  UNL1        0.1453
     22 N         142.8356  139.7054  164.1513 N.pl3   1  UNL1       -0.3325
     23 H         143.5816  139.2215  164.5740 H       1  UNL1        0.1468
     24 C         143.0284  141.1159  163.6788 C.3     1  UNL1        0.0870
     25 C         142.4868  142.2581  164.4863 C.3     1  UNL1        0.0195
     26 C         144.5566  143.5266  165.4118 C.3     1  UNL1        0.0001
     27 C         143.2699  142.7928  165.6485 C.3     1  UNL1        0.0017
     28 C         141.1618  142.8655  164.1316 C.3     1  UNL1        0.0017
     29 C         140.2442  143.3488  165.2153 C.3     1  UNL1        0.0001
@<TRIPOS>BOND
     1    26    27    1
     2    27    25    1
     3    25    28    1
     4    28    29    1
     5    25    24    1
     6    24    22    1
     7    22     1    1
     8     1     2   ar
     9     2    17    1
    10    17    18   am
    11    17    19    2
    12     2     3   ar
    13     3     4   ar
    14     4     5   ar
    15     5     6   ar
    16     6     7   ar
    17     7     8   ar
    18     8    11    1
    19    11    12   ar
    20    12    13   ar
    21    13    14   ar
    22    14    15   ar
    23    15    16   ar
    24     8     9   ar
    25     9    10   ar
    26    10     1   ar
    27    10     5   ar
    28    16    11   ar
    29    22    23    1
    30    18    20    1
    31    18    21    1
@<TRIPOS>MOLECULE
*****
 29 31 0 0 0
SMALL
GASTEIGER

@<TRIPOS>ATOM
      1 C         141.1412  141.6866  167.7130 C.ar    1  UNL1        0.0519
      2 C         141.4536  141.7702  169.1777 C.ar    1  UNL1        0.0853
      3 C         140.6846  140.9344  170.1575 C.ar    1  UNL1        0.1045
      4 N         139.6032  140.0150  169.6726 N.ar    1  UNL1       -0.2436
      5 C         139.2908  139.9313  168.2079 C.ar    1  UNL1        0.0825
      6 C         138.2094  139.0118  167.7230 C.ar    1  UNL1        0.0192
      7 C         137.8969  138.9282  166.2584 C.ar    1  UNL1        0.0031
      8 C         138.6659  139.7641  165.2785 C.ar    1  UNL1        0.0195
      9 C         139.7473  140.6835  165.7634 C.ar    1  UNL1        0.0043
     10 C         140.0597  140.7671  167.2281 C.ar    1  UNL1        0.0310
     11 C         138.3534  139.6804  163.8138 C.ar    1  UNL1        0.1029
     12 C         138.6784  138.4325  163.0476 C.ar    1  UNL1        0.0226
     13 C         138.3659  138.3488  161.5829 C.ar    1  UNL1        0.0241
     14 C         137.7284  139.5131  160.8843 C.ar    1  UNL1        0.1222
     15 N         137.4035  140.7611  161.6505 N.ar    1  UNL1       -0.1464
     16 N         137.7160  140.8447  163.1152 N.ar    1  UNL1       -0.1480
     17 C         142.5351  142.6897  169.6626 C.2     1  UNL1        0.2455
     18 N         142.2150  143.7640  170.6594 N.am    1  UNL1       -0.3252
     19 O         143.9365  142.5349  169.1508 O.2     1  UNL1       -0.2703
     20 H         141.2952  143.8656  170.9953 H       1  UNL1        0.1453
     21 H         142.9248  144.3675  170.9776 H       1  UNL1        0.1453
     22 N         141.9102  142.5225  166.7332 N.pl3   1  UNL1       -0.3325
     23 H         141.5702  143.4074  166.4677 H       1  UNL1        0.1468
     24 C         143.1972  142.0099  166.1578 C.3     1  UNL1        0.0870
     25 C         143.1743  141.0649  164.9931 C.3     1  UNL1        0.0195
     26 C         141.8791  140.5804  162.7937 C.3     1  UNL1        0.0001
     27 C         142.6536  141.5252  163.6639 C.3     1  UNL1        0.0017
     28 C         143.6720  139.6594  165.1578 C.3     1  UNL1        0.0017
     29 C         142.9058  138.6868  166.0045 C.3     1  UNL1        0.0001
@<TRIPOS>BOND
     1    26    27    1
     2    27    25    1
     3    25    28    1
     4    28    29    1
     5    25    24    1
     6    24    22    1
     7    22     1    1
     8     1     2   ar
     9     2    17    1
    10    17    18   am
    11    17    19    2
    12     2     3   ar
    13     3     4   ar
    14     4     5   ar
    15     5     6   ar
    16     6     7   ar
    17     7     8   ar
    18     8    11    1
    19    11    12   ar
    20    12    13   ar
    21    13    14   ar
    22    14    15   ar
    23    15    16   ar
    24     8     9   ar
    25     9    10   ar
    26    10     1   ar
    27    10     5   ar
    28    16    11   ar
    29    22    23    1
    30    18    20    1
    31    18    21    1
@<TRIPOS>MOLECULE
*****
 29 31 0 0 0
SMALL
GASTEIGER

@<TRIPOS>ATOM
      1 C         141.2120  140.4573  168.3133 C.ar    1  UNL1        0.0519
      2 C         140.6618  140.7332  169.6811 C.ar    1  UNL1        0.0853
      3 C         139.2566  140.3317  170.0193 C.ar    1  UNL1        0.1045
      4 N         138.4017  139.6543  168.9897 N.ar    1  UNL1       -0.2436
      5 C         138.9520  139.3784  167.6217 C.ar    1  UNL1        0.0825
      6 C         138.0971  138.7010  166.5921 C.ar    1  UNL1        0.0192
      7 C         138.6473  138.4251  165.2242 C.ar    1  UNL1        0.0031
      8 C         140.0525  138.8266  164.8860 C.ar    1  UNL1        0.0195
      9 C         140.9074  139.5040  165.9157 C.ar    1  UNL1        0.0043
     10 C         140.3571  139.7799  167.2835 C.ar    1  UNL1        0.0310
     11 C         140.6027  138.5507  163.5181 C.ar    1  UNL1        0.1029
     12 C         142.0600  138.2411  163.3443 C.ar    1  UNL1        0.0226
     13 C         142.6103  137.9652  161.9763 C.ar    1  UNL1        0.0241
     14 C         141.7031  137.9989  160.7823 C.ar    1  UNL1        0.1222
     15 N         140.2456  138.3085  160.9561 N.ar    1  UNL1       -0.1464
     16 N         139.6955  138.5844  162.3240 N.ar    1  UNL1       -0.1480
     17 C         141.5167  141.4106  170.7109 C.2     1  UNL1        0.2455
     18 N         142.4468  140.6003  171.5643 N.am    1  UNL1       -0.3252
     19 O         141.4415  142.8983  170.8872 O.2     1  UNL1       -0.2703
     20 H         142.4962  139.6239  171.4485 H       1  UNL1        0.1453
     21 H         143.0079  141.0449  172.2401 H       1  UNL1        0.1453
     22 N         142.6172  140.8588  167.9751 N.pl3   1  UNL1       -0.3325
     23 H         143.3559  140.2208  168.1035 H       1  UNL1        0.1468
     24 C         142.8968  142.2325  167.4413 C.3     1  UNL1        0.0870
     25 C         142.8988  142.4759  165.9612 C.3     1  UNL1        0.0195
     26 C         144.3154  140.9720  164.3860 C.3     1  UNL1        0.0001
     27 C         144.1482  142.2432  165.1645 C.3     1  UNL1        0.0017
     28 C         141.6512  142.9521  165.2778 C.3     1  UNL1        0.0017
     29 C         140.4036  143.1910  166.0756 C.3     1  UNL1        0.0001
@<TRIPOS>BOND
     1    26    27    1
     2    27    25    1
     3    25    28    1
     4    28    29    1
     5    25    24    1
     6    24    22    1
     7    22     1    1
     8     1     2   ar
     9     2    17    1
    10    17    18   am
    11    17    19    2
    12     2     3   ar
    13     3     4   ar
    14     4     5   ar
    15     5     6   ar
    16     6     7   ar
    17     7     8   ar
    18     8    11    1
    19    11    12   ar
    20    12    13   ar
    21    13    14   ar
    22    14    15   ar
    23    15    16   ar
    24     8     9   ar
    25     9    10   ar
    26    10     1   ar
    27    10     5   ar
    28    16    11   ar
    29    22    23    1
    30    18    20    1
    31    18    21    1
@<TRIPOS>MOLECULE
*****
 29 31 0 0 0
SMALL
GASTEIGER

@<TRIPOS>ATOM
      1 C         139.3487  139.3055  163.6969 C.ar    1  UNL1        0.0519
      2 C         139.7235  138.4314  162.5370 C.ar    1  UNL1        0.0853
      3 C         141.0162  137.6709  162.5578 C.ar    1  UNL1        0.1045
      4 N         141.9342  137.7845  163.7387 N.ar    1  UNL1       -0.2436
      5 C         141.5594  138.6586  164.8987 C.ar    1  UNL1        0.0825
      6 C         142.4774  138.7722  166.0795 C.ar    1  UNL1        0.0192
      7 C         142.1026  139.6463  167.2394 C.ar    1  UNL1        0.0031
      8 C         140.8099  140.4067  167.2186 C.ar    1  UNL1        0.0195
      9 C         139.8919  140.2931  166.0377 C.ar    1  UNL1        0.0043
     10 C         140.2667  139.4191  164.8778 C.ar    1  UNL1        0.0310
     11 C         140.4351  141.2808  168.3786 C.ar    1  UNL1        0.1029
     12 C         140.8604  142.7190  168.4021 C.ar    1  UNL1        0.0226
     13 C         140.4856  143.5931  169.5621 C.ar    1  UNL1        0.0241
     14 C         139.6855  143.0289  170.6986 C.ar    1  UNL1        0.1222
     15 N         139.2602  141.5906  170.6750 N.ar    1  UNL1       -0.1464
     16 N         139.6350  140.7166  169.5150 N.ar    1  UNL1       -0.1480
     17 C         138.8055  138.3178  161.3561 C.2     1  UNL1        0.2455
     18 N         139.3599  138.3989  159.9646 N.am    1  UNL1       -0.3252
     19 O         137.3332  138.1231  161.5666 O.2     1  UNL1       -0.2703
     20 H         140.3262  138.5266  159.8264 H       1  UNL1        0.1453
     21 H         138.7574  138.3243  159.1896 H       1  UNL1        0.1453
     22 N         138.0559  140.0659  163.6760 N.pl3   1  UNL1       -0.3325
     23 H         137.2616  139.6989  164.1271 H       1  UNL1        0.1468
     24 C         137.9735  141.3857  162.9678 C.3     1  UNL1        0.0870
     25 C         138.6816  142.5833  163.5285 C.3     1  UNL1        0.0195
     26 C         138.7341  144.6044  165.1602 C.3     1  UNL1        0.0001
     27 C         138.0601  143.3667  164.6465 C.3     1  UNL1        0.0017
     28 C         140.0112  142.9974  162.9711 C.3     1  UNL1        0.0017
     29 C         140.6750  142.1630  161.9161 C.3     1  UNL1        0.0001
@<TRIPOS>BOND
     1    26    27    1
     2    27    25    1
     3    25    28    1
     4    28    29    1
     5    25    24    1
     6    24    22    1
     7    22     1    1
     8     1     2   ar
     9     2    17    1
    10    17    18   am
    11    17    19    2
    12     2     3   ar
    13     3     4   ar
    14     4     5   ar
    15     5     6   ar
    16     6     7   ar
    17     7     8   ar
    18     8    11    1
    19    11    12   ar
    20    12    13   ar
    21    13    14   ar
    22    14    15   ar
    23    15    16   ar
    24     8     9   ar
    25     9    10   ar
    26    10     1   ar
    27    10     5   ar
    28    16    11   ar
    29    22    23    1
    30    18    20    1
    31    18    21    1
@<TRIPOS>MOLECULE
*****
 29 31 0 0 0
SMALL
GASTEIGER

@<TRIPOS>ATOM
      1 C         140.6467  140.0295  163.0782 C.ar    1  UNL1        0.0519
      2 C         140.4199  139.1797  161.8631 C.ar    1  UNL1        0.0853
      3 C         139.5211  137.9814  161.9430 C.ar    1  UNL1        0.1045
      4 N         138.8491  137.6329  163.2379 N.ar    1  UNL1       -0.2436
      5 C         139.0759  138.4827  164.4531 C.ar    1  UNL1        0.0825
      6 C         138.4039  138.1342  165.7480 C.ar    1  UNL1        0.0192
      7 C         138.6307  138.9840  166.9631 C.ar    1  UNL1        0.0031
      8 C         139.5294  140.1823  166.8832 C.ar    1  UNL1        0.0195
      9 C         140.2014  140.5308  165.5883 C.ar    1  UNL1        0.0043
     10 C         139.9747  139.6810  164.3732 C.ar    1  UNL1        0.0310
     11 C         139.7562  141.0321  168.0984 C.ar    1  UNL1        0.1029
     12 C         140.4878  142.3358  167.9760 C.ar    1  UNL1        0.0226
     13 C         140.7145  143.1856  169.1911 C.ar    1  UNL1        0.0241
     14 C         140.2097  142.7316  170.5286 C.ar    1  UNL1        0.1222
     15 N         139.4780  141.4277  170.6510 N.ar    1  UNL1       -0.1464
     16 N         139.2513  140.5780  169.4359 N.ar    1  UNL1       -0.1480
     17 C         141.0919  139.5282  160.5681 C.2     1  UNL1        0.2455
     18 N         141.7926  138.4639  159.7766 N.am    1  UNL1       -0.3252
     19 O         141.0632  140.9408  160.0646 O.2     1  UNL1       -0.2703
     20 H         141.8114  137.5367  160.1071 H       1  UNL1        0.1453
     21 H         142.2336  138.6926  158.9266 H       1  UNL1        0.1453
     22 N         141.5454  141.2277  162.9983 N.pl3   1  UNL1       -0.3325
     23 H         141.1661  142.1156  162.8061 H       1  UNL1        0.1468
     24 C         143.0222  141.0731  163.2113 C.3     1  UNL1        0.0870
     25 C         143.5589  140.8209  164.5891 C.3     1  UNL1        0.0195
     26 C         143.3776  138.6150  165.9496 C.3     1  UNL1        0.0001
     27 C         144.0981  139.4680  164.9480 C.3     1  UNL1        0.0017
     28 C         143.5563  141.9217  165.6081 C.3     1  UNL1        0.0017
     29 C         144.3065  143.1928  165.3409 C.3     1  UNL1        0.0001
@<TRIPOS>BOND
     1    26    27    1
     2    27    25    1
     3    25    28    1
     4    28    29    1
     5    25    24    1
     6    24    22    1
     7    22     1    1
     8     1     2   ar
     9     2    17    1
    10    17    18   am
    11    17    19    2
    12     2     3   ar
    13     3     4   ar
    14     4     5   ar
    15     5     6   ar
    16     6     7   ar
    17     7     8   ar
    18     8    11    1
    19    11    12   ar
    20    12    13   ar
    21    13    14   ar
    22    14    15   ar
    23    15    16   ar
    24     8     9   ar
    25     9    10   ar
    26    10     1   ar
    27    10     5   ar
    28    16    11   ar
    29    22    23    1
    30    18    20    1
    31    18    21    1
@<TRIPOS>MOLECULE
*****
 29 31 0 0 0
SMALL
GASTEIGER

@<TRIPOS>ATOM
      1 C         140.9953  141.7321  167.5585 C.ar    1  UNL1        0.0519
      2 C         141.3136  141.8005  169.0227 C.ar    1  UNL1        0.0853
      3 C         140.5815  140.9197  169.9914 C.ar    1  UNL1        0.1045
      4 N         139.5311  139.9705  169.4958 N.ar    1  UNL1       -0.2436
      5 C         139.2127  139.9021  168.0315 C.ar    1  UNL1        0.0825
      6 C         138.1623  138.9529  167.5359 C.ar    1  UNL1        0.0192
      7 C         137.8440  138.8845  166.0716 C.ar    1  UNL1        0.0031
      8 C         138.5762  139.7653  165.1030 C.ar    1  UNL1        0.0195
      9 C         139.6266  140.7145  165.5986 C.ar    1  UNL1        0.0043
     10 C         139.9449  140.7829  167.0628 C.ar    1  UNL1        0.0310
     11 C         138.2578  139.6969  163.6387 C.ar    1  UNL1        0.1029
     12 C         138.5480  138.4445  162.8659 C.ar    1  UNL1        0.0226
     13 C         138.2296  138.3761  161.4016 C.ar    1  UNL1        0.0241
     14 C         137.6212  139.5601  160.7102 C.ar    1  UNL1        0.1222
     15 N         137.3311  140.8125  161.4832 N.ar    1  UNL1       -0.1464
     16 N         137.6494  140.8809  162.9474 N.ar    1  UNL1       -0.1480
     17 C         142.3640  142.7497  169.5184 C.2     1  UNL1        0.2455
     18 N         142.0340  143.7353  170.5999 N.am    1  UNL1       -0.3252
     19 O         143.7444  142.7132  168.9326 O.2     1  UNL1       -0.2703
     20 H         141.1280  143.7592  170.9844 H       1  UNL1        0.1453
     21 H         142.7235  144.3583  170.9252 H       1  UNL1        0.1453
     22 N         141.7274  142.6129  166.5899 N.pl3   1  UNL1       -0.3325
     23 H         142.5573  143.0650  166.8660 H       1  UNL1        0.1468
     24 C         141.1952  142.8048  165.2007 C.3     1  UNL1        0.0870
     25 C         140.5599  144.1075  164.8142 C.3     1  UNL1        0.0195
     26 C         137.9692  143.9490  164.7010 C.3     1  UNL1        0.0001
     27 C         139.2110  144.4746  165.3580 C.3     1  UNL1        0.0017
     28 C         141.2736  145.0431  163.8839 C.3     1  UNL1        0.0017
     29 C         142.7729  145.0829  163.8649 C.3     1  UNL1        0.0001
@<TRIPOS>BOND
     1    26    27    1
     2    27    25    1
     3    25    28    1
     4    28    29    1
     5    25    24    1
     6    24    22    1
     7    22     1    1
     8     1     2   ar
     9     2    17    1
    10    17    18   am
    11    17    19    2
    12     2     3   ar
    13     3     4   ar
    14     4     5   ar
    15     5     6   ar
    16     6     7   ar
    17     7     8   ar
    18     8    11    1
    19    11    12   ar
    20    12    13   ar
    21    13    14   ar
    22    14    15   ar
    23    15    16   ar
    24     8     9   ar
    25     9    10   ar
    26    10     1   ar
    27    10     5   ar
    28    16    11   ar
    29    22    23    1
    30    18    20    1
    31    18    21    1
@<TRIPOS>MOLECULE
*****
 29 31 0 0 0
SMALL
GASTEIGER

@<TRIPOS>ATOM
      1 C         140.0680  144.0689  163.4244 C.ar    1  UNL1        0.0519
      2 C         139.6331  144.1556  161.9915 C.ar    1  UNL1        0.0853
      3 C         138.8549  143.0315  161.3746 C.ar    1  UNL1        0.1045
      4 N         138.5115  141.8206  162.1906 N.ar    1  UNL1       -0.2436
      5 C         138.9464  141.7339  163.6236 C.ar    1  UNL1        0.0825
      6 C         138.6030  140.5230  164.4396 C.ar    1  UNL1        0.0192
      7 C         139.0379  140.4363  165.8725 C.ar    1  UNL1        0.0031
      8 C         139.8162  141.5605  166.4894 C.ar    1  UNL1        0.0195
      9 C         140.1595  142.7713  165.6734 C.ar    1  UNL1        0.0043
     10 C         139.7247  142.8580  164.2405 C.ar    1  UNL1        0.0310
     11 C         140.2511  141.4737  167.9224 C.ar    1  UNL1        0.1029
     12 C         139.9698  140.2335  168.7178 C.ar    1  UNL1        0.0226
     13 C         140.4047  140.1467  170.1508 C.ar    1  UNL1        0.0241
     14 C         141.1209  141.3002  170.7883 C.ar    1  UNL1        0.1222
     15 N         141.4021  142.5405  169.9929 N.ar    1  UNL1       -0.1464
     16 N         140.9672  142.6273  168.5600 N.ar    1  UNL1       -0.1480
     17 C         139.9765  145.3665  161.1754 C.2     1  UNL1        0.2455
     18 N         139.1372  146.6052  161.2817 N.am    1  UNL1       -0.3252
     19 O         141.1591  145.3387  160.2531 O.2     1  UNL1       -0.2703
     20 H         138.3611  146.6235  161.8871 H       1  UNL1        0.1453
     21 H         139.3626  147.3999  160.7461 H       1  UNL1        0.1453
     22 N         140.8463  145.1931  164.0413 N.pl3   1  UNL1       -0.3325
     23 H         140.3899  145.8525  164.6124 H       1  UNL1        0.1468
     24 C         142.3200  145.3125  163.7881 C.3     1  UNL1        0.0870
     25 C         143.1433  144.0804  163.5559 C.3     1  UNL1        0.0195
     26 C         142.9377  142.4768  161.5221 C.3     1  UNL1        0.0001
     27 C         143.5379  143.6938  162.1613 C.3     1  UNL1        0.0017
     28 C         143.5721  143.2348  164.7183 C.3     1  UNL1        0.0017
     29 C         144.6886  143.6942  165.6085 C.3     1  UNL1        0.0001
@<TRIPOS>BOND
     1    26    27    1
     2    27    25    1
     3    25    28    1
     4    28    29    1
     5    25    24    1
     6    24    22    1
     7    22     1    1
     8     1     2   ar
     9     2    17    1
    10    17    18   am
    11    17    19    2
    12     2     3   ar
    13     3     4   ar
    14     4     5   ar
    15     5     6   ar
    16     6     7   ar
    17     7     8   ar
    18     8    11    1
    19    11    12   ar
    20    12    13   ar
    21    13    14   ar
    22    14    15   ar
    23    15    16   ar
    24     8     9   ar
    25     9    10   ar
    26    10     1   ar
    27    10     5   ar
    28    16    11   ar
    29    22    23    1
    30    18    20    1
    31    18    21    1
@<TRIPOS>MOLECULE
*****
 29 31 0 0 0
SMALL
GASTEIGER

@<TRIPOS>ATOM
      1 C         142.0460  139.7287  163.1165 C.ar    1  UNL1        0.0519
      2 C         142.1055  138.9679  161.8252 C.ar    1  UNL1        0.0853
      3 C         141.1162  137.8738  161.5530 C.ar    1  UNL1        0.1045
      4 N         140.0674  137.5404  162.5722 N.ar    1  UNL1       -0.2436
      5 C         140.0078  138.3012  163.8636 C.ar    1  UNL1        0.0825
      6 C         138.9589  137.9679  164.8828 C.ar    1  UNL1        0.0192
      7 C         138.8994  138.7287  166.1741 C.ar    1  UNL1        0.0031
      8 C         139.8887  139.8228  166.4463 C.ar    1  UNL1        0.0195
      9 C         140.9375  140.1562  165.4271 C.ar    1  UNL1        0.0043
     10 C         140.9971  139.3954  164.1358 C.ar    1  UNL1        0.0310
     11 C         139.8291  140.5837  167.7377 C.ar    1  UNL1        0.1029
     12 C         140.4633  141.9392  167.8395 C.ar    1  UNL1        0.0226
     13 C         140.4037  142.7000  169.1310 C.ar    1  UNL1        0.0241
     14 C         139.7099  142.1052  170.3205 C.ar    1  UNL1        0.1222
     15 N         139.0757  140.7497  170.2186 N.ar    1  UNL1       -0.1464
     16 N         139.1353  139.9889  168.9272 N.ar    1  UNL1       -0.1480
     17 C         143.1544  139.3013  160.8060 C.2     1  UNL1        0.2455
     18 N         144.4889  138.6179  160.8521 N.am    1  UNL1       -0.3252
     19 O         142.8688  140.3179  159.7407 O.2     1  UNL1       -0.2703
     20 H         144.6764  137.9506  161.5512 H       1  UNL1        0.1453
     21 H         145.1774  138.8367  160.1831 H       1  UNL1        0.1453
     22 N         143.0353  140.8229  163.3887 N.pl3   1  UNL1       -0.3325
     23 H         143.8813  140.6184  163.8488 H       1  UNL1        0.1468
     24 C         142.7356  142.2287  162.9598 C.3     1  UNL1        0.0870
     25 C         142.5622  143.3060  163.9891 C.3     1  UNL1        0.0195
     26 C         140.4071  144.7566  164.0250 C.3     1  UNL1        0.0001
     27 C         141.2011  143.5967  164.5486 C.3     1  UNL1        0.0017
     28 C         143.7499  144.0926  164.4590 C.3     1  UNL1        0.0017
     29 C         144.6367  143.5406  165.5355 C.3     1  UNL1        0.0001
@<TRIPOS>BOND
     1    26    27    1
     2    27    25    1
     3    25    28    1
     4    28    29    1
     5    25    24    1
     6    24    22    1
     7    22     1    1
     8     1     2   ar
     9     2    17    1
    10    17    18   am
    11    17    19    2
    12     2     3   ar
    13     3     4   ar
    14     4     5   ar
    15     5     6   ar
    16     6     7   ar
    17     7     8   ar
    18     8    11    1
    19    11    12   ar
    20    12    13   ar
    21    13    14   ar
    22    14    15   ar
    23    15    16   ar
    24     8     9   ar
    25     9    10   ar
    26    10     1   ar
    27    10     5   ar
    28    16    11   ar
    29    22    23    1
    30    18    20    1
    31    18    21    1
