@<TRIPOS>MOLECULE
*****
 33 36 0 0 0
SMALL
GASTEIGER

@<TRIPOS>ATOM
      1 N         140.7878  142.2158  166.9921 N.ar    1  UNL1       -0.2874
      2 C         140.8270  142.7316  168.4000 C.ar    1  UNL1        0.0858
      3 C         140.1132  141.9894  169.4907 C.ar    1  UNL1        0.0705
      4 C         139.3602  140.7315  169.1734 C.ar    1  UNL1        0.1996
      5 O         138.6463  139.9893  170.2641 O.2     1  UNL1       -0.2864
      6 C         139.3210  140.2158  167.7654 C.ar    1  UNL1        0.0582
      7 C         138.5680  138.9579  167.4481 C.ar    1  UNL1        0.0340
      8 C         138.5288  138.4422  166.0401 C.ar    1  UNL1        0.1371
      9 F         137.7758  137.1843  165.7228 F       1  UNL1       -0.2045
     10 C         139.2426  139.1844  164.9493 C.ar    1  UNL1        0.0171
     11 C         139.9956  140.4423  165.2667 C.ar    1  UNL1        0.0720
     12 CL        140.7095  141.1844  164.1760 Cl      1  UNL1       -0.0810
     13 C         140.0348  140.9580  166.6747 C.ar    1  UNL1        0.0788
     14 N         140.7472  145.7436  163.1771 N.pl3   1  UNL1       -0.3408
     15 C         141.4814  144.7219  163.9938 C.ar    1  UNL1        0.1548
     16 N         140.7675  143.9797  165.0846 N.ar    1  UNL1       -0.2091
     17 C         141.5017  142.9580  165.9013 C.ar    1  UNL1        0.1769
     18 C         142.9497  142.6784  165.6273 C.ar    1  UNL1        0.1767
     19 F         143.6839  141.6567  166.4441 F       1  UNL1       -0.2009
     20 C         143.6635  143.4206  164.5367 C.ar    1  UNL1        0.0652
     21 C         142.9294  144.4423  163.7199 C.ar    1  UNL1        0.1734
     22 F         143.6432  145.1845  162.6292 F       1  UNL1       -0.2012
     23 H         139.7968  145.9271  163.3570 H       1  UNL1        0.1438
     24 H         141.2157  146.2307  162.4613 H       1  UNL1        0.1438
     25 C         139.2034  138.6687  163.5413 C.3     1  UNL1        0.0302
     26 C         140.0211  137.6953  162.7452 C.3     1  UNL1        0.0338
     27 C         139.1480  137.9393  161.5501 C.3     1  UNL1        0.1112
     28 O         139.1088  137.4236  160.1420 O.3     1  UNL1       -0.3844
     29 C         138.3303  138.9127  162.3463 C.3     1  UNL1        0.0338
     30 H         138.3714  137.8373  159.6666 H       1  UNL1        0.2103
     31 C         140.1524  142.5051  170.8988 C.2     1  UNL1        0.0774
     32 O         139.0555  143.3959  171.4020 O.co2   1  UNL1       -0.5444
     33 O         141.2884  142.1299  171.8035 O.co2   1  UNL1       -0.5444
@<TRIPOS>UNITY_ATOM_ATTR
32 1
charge -1
@<TRIPOS>BOND
     1    14    15    1
     2    15    16   ar
     3    16    17   ar
     4    17     1    1
     5     1     2   ar
     6     2     3   ar
     7     3    31    1
     8    31    32   ar
     9    31    33   ar
    10     3     4   ar
    11     4     5    2
    12     4     6   ar
    13     6     7   ar
    14     7     8   ar
    15     8     9    1
    16     8    10   ar
    17    25    10    1
    18    25    26    1
    19    26    27    1
    20    27    28    1
    21    27    29    1
    22    10    11   ar
    23    11    12    1
    24    11    13   ar
    25    17    18   ar
    26    18    19    1
    27    18    20   ar
    28    20    21   ar
    29    21    22    1
    30    21    15   ar
    31    13     1   ar
    32    13     6   ar
    33    29    25    1
    34    14    23    1
    35    14    24    1
    36    28    30    1
@<TRIPOS>MOLECULE
*****
 33 36 0 0 0
SMALL
GASTEIGER

@<TRIPOS>ATOM
      1 N         140.6672  142.1850  167.0271 N.ar    1  UNL1       -0.2874
      2 C         140.7366  142.7119  168.4297 C.ar    1  UNL1        0.0858
      3 C         140.0499  141.9764  169.5420 C.ar    1  UNL1        0.0705
      4 C         139.2937  140.7139  169.2517 C.ar    1  UNL1        0.1996
      5 O         138.6069  139.9783  170.3642 O.2     1  UNL1       -0.2864
      6 C         139.2243  140.1869  167.8491 C.ar    1  UNL1        0.0582
      7 C         138.4681  138.9244  167.5588 C.ar    1  UNL1        0.0340
      8 C         138.3987  138.3974  166.1562 C.ar    1  UNL1        0.1371
      9 F         137.6425  137.1349  165.8659 F       1  UNL1       -0.2045
     10 C         139.0854  139.1330  165.0437 C.ar    1  UNL1        0.0171
     11 C         139.8416  140.3955  165.3340 C.ar    1  UNL1        0.0720
     12 CL        140.5283  141.1310  164.2217 Cl      1  UNL1       -0.0810
     13 C         139.9110  140.9224  166.7368 C.ar    1  UNL1        0.0788
     14 N         144.8952  143.0278  164.1263 N.pl3   1  UNL1       -0.3408
     15 C         143.4679  143.3419  164.4643 C.ar    1  UNL1        0.1548
     16 N         142.7812  142.6064  165.5767 N.ar    1  UNL1       -0.2091
     17 C         141.3539  142.9205  165.9146 C.ar    1  UNL1        0.1769
     18 C         140.6134  143.9702  165.1402 C.ar    1  UNL1        0.1767
     19 F         139.1860  144.2843  165.4782 F       1  UNL1       -0.2009
     20 C         141.3000  144.7057  164.0278 C.ar    1  UNL1        0.0652
     21 C         142.7274  144.3916  163.6898 C.ar    1  UNL1        0.1734
     22 F         143.4140  145.1271  162.5775 F       1  UNL1       -0.2012
     23 H         145.3812  142.3388  164.6346 H       1  UNL1        0.1438
     24 H         145.3459  143.5105  163.3962 H       1  UNL1        0.1438
     25 C         139.0160  138.6060  163.6411 C.3     1  UNL1        0.0302
     26 C         138.1112  138.8328  162.4664 C.3     1  UNL1        0.0338
     27 C         138.9178  137.8607  161.6574 C.3     1  UNL1        0.1112
     28 O         138.8484  137.3337  160.2547 O.3     1  UNL1       -0.3844
     29 C         139.8226  137.6339  162.8321 C.3     1  UNL1        0.0338
     30 H         139.5712  136.7032  160.1101 H       1  UNL1        0.2103
     31 C         140.1193  142.5034  170.9448 C.2     1  UNL1        0.0774
     32 O         139.0545  143.4306  171.4512 O.co2   1  UNL1       -0.5444
     33 O         141.2535  142.1031  171.8410 O.co2   1  UNL1       -0.5444
@<TRIPOS>UNITY_ATOM_ATTR
32 1
charge -1
@<TRIPOS>BOND
     1    14    15    1
     2    15    16   ar
     3    16    17   ar
     4    17     1    1
     5     1     2   ar
     6     2     3   ar
     7     3    31    1
     8    31    32   ar
     9    31    33   ar
    10     3     4   ar
    11     4     5    2
    12     4     6   ar
    13     6     7   ar
    14     7     8   ar
    15     8     9    1
    16     8    10   ar
    17    25    10    1
    18    25    26    1
    19    26    27    1
    20    27    28    1
    21    27    29    1
    22    10    11   ar
    23    11    12    1
    24    11    13   ar
    25    17    18   ar
    26    18    19    1
    27    18    20   ar
    28    20    21   ar
    29    21    22    1
    30    21    15   ar
    31    13     1   ar
    32    13     6   ar
    33    29    25    1
    34    14    23    1
    35    14    24    1
    36    28    30    1
@<TRIPOS>MOLECULE
*****
 33 36 0 0 0
SMALL
GASTEIGER

@<TRIPOS>ATOM
      1 N         142.7921  141.8872  166.2469 N.ar    1  UNL1       -0.2874
      2 C         143.4394  142.4862  167.4602 C.ar    1  UNL1        0.0858
      3 C         142.8441  142.2575  168.8178 C.ar    1  UNL1        0.0705
      4 C         141.6015  141.4297  168.9622 C.ar    1  UNL1        0.1996
      5 O         141.0062  141.2010  170.3199 O.2     1  UNL1       -0.2864
      6 C         140.9543  140.8307  167.7488 C.ar    1  UNL1        0.0582
      7 C         139.7117  140.0029  167.8932 C.ar    1  UNL1        0.0340
      8 C         139.0645  139.4039  166.6799 C.ar    1  UNL1        0.1371
      9 F         137.8219  138.5761  166.8242 F       1  UNL1       -0.2045
     10 C         139.6598  139.6326  165.3221 C.ar    1  UNL1        0.0171
     11 C         140.9023  140.4604  165.1778 C.ar    1  UNL1        0.0720
     12 CL        141.4976  140.6892  163.8202 Cl      1  UNL1       -0.0810
     13 C         141.5496  141.0594  166.3912 C.ar    1  UNL1        0.0788
     14 N         143.2333  144.7857  161.9568 N.pl3   1  UNL1       -0.3408
     15 C         143.6080  143.5652  162.7441 C.ar    1  UNL1        0.1548
     16 N         143.0127  143.3365  164.1019 N.ar    1  UNL1       -0.2091
     17 C         143.3874  142.1160  164.8891 C.ar    1  UNL1        0.1769
     18 C         144.3575  141.1241  164.3188 C.ar    1  UNL1        0.1767
     19 F         144.7322  139.9035  165.1061 F       1  UNL1       -0.2009
     20 C         144.9528  141.3528  162.9611 C.ar    1  UNL1        0.0652
     21 C         144.5780  142.5734  162.1737 C.ar    1  UNL1        0.1734
     22 F         145.1733  142.8021  160.8161 F       1  UNL1       -0.2012
     23 H         142.5966  145.4367  162.3312 H       1  UNL1        0.1438
     24 H         143.6240  144.9358  161.0657 H       1  UNL1        0.1438
     25 C         139.0125  139.0336  164.1088 C.3     1  UNL1        0.0302
     26 C         138.9668  137.6644  163.4979 C.3     1  UNL1        0.0338
     27 C         138.0971  138.1864  162.3929 C.3     1  UNL1        0.1112
     28 O         137.4498  137.5874  161.1795 O.3     1  UNL1       -0.3844
     29 C         138.1428  139.5556  163.0038 C.3     1  UNL1        0.0338
     30 H         136.9551  138.2736  160.7049 H       1  UNL1        0.2103
     31 C         143.4914  142.8565  170.0312 C.2     1  UNL1        0.0774
     32 O         144.9858  142.8586  170.1602 O.co2   1  UNL1       -0.5444
     33 O         142.6441  143.4535  171.1156 O.co2   1  UNL1       -0.5444
@<TRIPOS>UNITY_ATOM_ATTR
32 1
charge -1
@<TRIPOS>BOND
     1    14    15    1
     2    15    16   ar
     3    16    17   ar
     4    17     1    1
     5     1     2   ar
     6     2     3   ar
     7     3    31    1
     8    31    32   ar
     9    31    33   ar
    10     3     4   ar
    11     4     5    2
    12     4     6   ar
    13     6     7   ar
    14     7     8   ar
    15     8     9    1
    16     8    10   ar
    17    25    10    1
    18    25    26    1
    19    26    27    1
    20    27    28    1
    21    27    29    1
    22    10    11   ar
    23    11    12    1
    24    11    13   ar
    25    17    18   ar
    26    18    19    1
    27    18    20   ar
    28    20    21   ar
    29    21    22    1
    30    21    15   ar
    31    13     1   ar
    32    13     6   ar
    33    29    25    1
    34    14    23    1
    35    14    24    1
    36    28    30    1
@<TRIPOS>MOLECULE
*****
 33 36 0 0 0
SMALL
GASTEIGER

@<TRIPOS>ATOM
      1 N         140.5675  142.4567  166.6866 N.ar    1  UNL1       -0.2874
      2 C         140.1696  143.0145  168.0210 C.ar    1  UNL1        0.0858
      3 C         140.6331  142.3466  169.2815 C.ar    1  UNL1        0.0705
      4 C         141.4944  141.1207  169.2077 C.ar    1  UNL1        0.1996
      5 O         141.9578  140.4527  170.4683 O.2     1  UNL1       -0.2864
      6 C         141.8922  140.5628  167.8734 C.ar    1  UNL1        0.0582
      7 C         142.7534  139.3369  167.7995 C.ar    1  UNL1        0.0340
      8 C         143.1513  138.7790  166.4652 C.ar    1  UNL1        0.1371
      9 F         144.0125  137.5531  166.3914 F       1  UNL1       -0.2045
     10 C         142.6878  139.4470  165.2046 C.ar    1  UNL1        0.0171
     11 C         141.8265  140.6729  165.2784 C.ar    1  UNL1        0.0720
     12 CL        141.3631  141.3409  164.0179 Cl      1  UNL1       -0.0810
     13 C         141.4287  141.2308  166.6128 C.ar    1  UNL1        0.0788
     14 N         141.2521  146.0225  162.9696 N.pl3   1  UNL1       -0.3408
     15 C         140.4463  144.9076  163.5675 C.ar    1  UNL1        0.1548
     16 N         140.9098  144.2396  164.8281 N.ar    1  UNL1       -0.2091
     17 C         140.1040  143.1246  165.4260 C.ar    1  UNL1        0.1769
     18 C         138.8347  142.6776  164.7634 C.ar    1  UNL1        0.1767
     19 F         138.0289  141.5626  165.3614 F       1  UNL1       -0.2009
     20 C         138.3712  143.3455  163.5028 C.ar    1  UNL1        0.0652
     21 C         139.1770  144.4606  162.9049 C.ar    1  UNL1        0.1734
     22 F         138.7136  145.1285  161.6443 F       1  UNL1       -0.2012
     23 H         142.0852  146.3159  163.4045 H       1  UNL1        0.1438
     24 H         140.9479  146.4609  162.1423 H       1  UNL1        0.1438
     25 C         143.0856  138.8891  163.8703 C.3     1  UNL1        0.0302
     26 C         144.2860  139.0212  162.9806 C.3     1  UNL1        0.0338
     27 C         143.6482  138.1001  161.9832 C.3     1  UNL1        0.1112
     28 O         144.0460  137.5422  160.6488 O.3     1  UNL1       -0.3844
     29 C         142.4478  137.9680  162.8729 C.3     1  UNL1        0.0338
     30 H         143.3392  136.9679  160.3148 H       1  UNL1        0.2103
     31 C         140.2353  142.9044  170.6159 C.2     1  UNL1        0.0774
     32 O         139.6528  144.2835  170.7088 O.co2   1  UNL1       -0.5444
     33 O         140.4201  142.0832  171.8574 O.co2   1  UNL1       -0.5444
@<TRIPOS>UNITY_ATOM_ATTR
32 1
charge -1
@<TRIPOS>BOND
     1    14    15    1
     2    15    16   ar
     3    16    17   ar
     4    17     1    1
     5     1     2   ar
     6     2     3   ar
     7     3    31    1
     8    31    32   ar
     9    31    33   ar
    10     3     4   ar
    11     4     5    2
    12     4     6   ar
    13     6     7   ar
    14     7     8   ar
    15     8     9    1
    16     8    10   ar
    17    25    10    1
    18    25    26    1
    19    26    27    1
    20    27    28    1
    21    27    29    1
    22    10    11   ar
    23    11    12    1
    24    11    13   ar
    25    17    18   ar
    26    18    19    1
    27    18    20   ar
    28    20    21   ar
    29    21    22    1
    30    21    15   ar
    31    13     1   ar
    32    13     6   ar
    33    29    25    1
    34    14    23    1
    35    14    24    1
    36    28    30    1
@<TRIPOS>MOLECULE
*****
 33 36 0 0 0
SMALL
GASTEIGER

@<TRIPOS>ATOM
      1 N         140.4149  141.1189  166.8091 N.ar    1  UNL1       -0.2874
      2 C         140.0295  141.1198  168.2587 C.ar    1  UNL1        0.0858
      3 C         140.8377  140.3363  169.2501 C.ar    1  UNL1        0.0705
      4 C         142.0313  139.5518  168.7918 C.ar    1  UNL1        0.1996
      5 O         142.8395  138.7683  169.7833 O.2     1  UNL1       -0.2864
      6 C         142.4167  139.5509  167.3422 C.ar    1  UNL1        0.0582
      7 C         143.6103  138.7664  166.8840 C.ar    1  UNL1        0.0340
      8 C         143.9957  138.7655  165.4343 C.ar    1  UNL1        0.1371
      9 F         145.1893  137.9811  164.9761 F       1  UNL1       -0.2045
     10 C         143.1875  139.5491  164.4429 C.ar    1  UNL1        0.0171
     11 C         141.9939  140.3335  164.9011 C.ar    1  UNL1        0.0720
     12 CL        141.1857  141.1170  163.9098 Cl      1  UNL1       -0.0810
     13 C         141.6085  140.3344  166.3508 C.ar    1  UNL1        0.0788
     14 N         139.6004  145.4886  164.1179 N.pl3   1  UNL1       -0.3408
     15 C         139.1995  144.0873  164.4721 C.ar    1  UNL1        0.1548
     16 N         140.0077  143.3037  165.4635 N.ar    1  UNL1       -0.2091
     17 C         139.6067  141.9024  165.8176 C.ar    1  UNL1        0.1769
     18 C         138.3976  141.2846  165.1803 C.ar    1  UNL1        0.1767
     19 F         137.9966  139.8831  165.5345 F       1  UNL1       -0.2009
     20 C         137.5894  142.0680  164.1889 C.ar    1  UNL1        0.0652
     21 C         137.9903  143.4694  163.8347 C.ar    1  UNL1        0.1734
     22 F         137.1821  144.2529  162.8433 F       1  UNL1       -0.2012
     23 H         140.3941  145.8941  164.5362 H       1  UNL1        0.1438
     24 H         139.0700  146.0029  163.4672 H       1  UNL1        0.1438
     25 C         143.5729  139.5482  162.9933 C.3     1  UNL1        0.0302
     26 C         144.4159  140.4288  162.1193 C.3     1  UNL1        0.0338
     27 C         144.1179  139.5469  160.9432 C.3     1  UNL1        0.1112
     28 O         144.5033  139.5459  159.4935 O.3     1  UNL1       -0.3844
     29 C         143.2749  138.6662  161.8171 C.3     1  UNL1        0.0338
     30 H         144.0945  138.7858  159.0507 H       1  UNL1        0.2103
     31 C         140.4524  140.3371  170.6998 C.2     1  UNL1        0.0774
     32 O         141.2076  141.1894  171.6760 O.co2   1  UNL1       -0.5444
     33 O         139.3117  139.4857  171.1731 O.co2   1  UNL1       -0.5444
@<TRIPOS>UNITY_ATOM_ATTR
32 1
charge -1
@<TRIPOS>BOND
     1    14    15    1
     2    15    16   ar
     3    16    17   ar
     4    17     1    1
     5     1     2   ar
     6     2     3   ar
     7     3    31    1
     8    31    32   ar
     9    31    33   ar
    10     3     4   ar
    11     4     5    2
    12     4     6   ar
    13     6     7   ar
    14     7     8   ar
    15     8     9    1
    16     8    10   ar
    17    25    10    1
    18    25    26    1
    19    26    27    1
    20    27    28    1
    21    27    29    1
    22    10    11   ar
    23    11    12    1
    24    11    13   ar
    25    17    18   ar
    26    18    19    1
    27    18    20   ar
    28    20    21   ar
    29    21    22    1
    30    21    15   ar
    31    13     1   ar
    32    13     6   ar
    33    29    25    1
    34    14    23    1
    35    14    24    1
    36    28    30    1
@<TRIPOS>MOLECULE
*****
 33 36 0 0 0
SMALL
GASTEIGER

@<TRIPOS>ATOM
      1 N         140.2675  140.4525  166.2006 N.ar    1  UNL1       -0.2874
      2 C         139.6205  140.3026  167.5455 C.ar    1  UNL1        0.0858
      3 C         140.2233  140.9696  168.7462 C.ar    1  UNL1        0.0705
      4 C         141.4730  141.7865  168.6020 C.ar    1  UNL1        0.1996
      5 O         142.0758  142.4535  169.8028 O.2     1  UNL1       -0.2864
      6 C         142.1200  141.9364  167.2571 C.ar    1  UNL1        0.0582
      7 C         143.3698  142.7533  167.1129 C.ar    1  UNL1        0.0340
      8 C         144.0168  142.9032  165.7679 C.ar    1  UNL1        0.1371
      9 F         145.2665  143.7200  165.6237 F       1  UNL1       -0.2045
     10 C         143.4140  142.2361  164.5671 C.ar    1  UNL1        0.0171
     11 C         142.1643  141.4193  164.7113 C.ar    1  UNL1        0.0720
     12 CL        141.5615  140.7523  163.5106 Cl      1  UNL1       -0.0810
     13 C         141.5173  141.2694  166.0564 C.ar    1  UNL1        0.0788
     14 N         137.0352  140.5742  162.1339 N.pl3   1  UNL1       -0.3408
     15 C         138.0486  139.8463  162.9664 C.ar    1  UNL1        0.1548
     16 N         138.6514  140.5134  164.1672 N.ar    1  UNL1       -0.2091
     17 C         139.6648  139.7855  164.9998 C.ar    1  UNL1        0.1769
     18 C         140.0755  138.3906  164.6316 C.ar    1  UNL1        0.1767
     19 F         141.0889  137.6627  165.4642 F       1  UNL1       -0.2009
     20 C         139.4728  137.7236  163.4309 C.ar    1  UNL1        0.0652
     21 C         138.4593  138.4514  162.5982 C.ar    1  UNL1        0.1734
     22 F         137.8566  137.7844  161.3975 F       1  UNL1       -0.2012
     23 H         136.7657  141.4898  162.3755 H       1  UNL1        0.1438
     24 H         136.6396  140.1365  161.3458 H       1  UNL1        0.1438
     25 C         144.0610  142.3860  163.2222 C.3     1  UNL1        0.0302
     26 C         145.2134  141.7305  162.5206 C.3     1  UNL1        0.0338
     27 C         144.9761  142.5980  161.3202 C.3     1  UNL1        0.1112
     28 O         145.6231  142.7479  159.9751 O.3     1  UNL1       -0.3844
     29 C         143.8237  143.2535  162.0218 C.3     1  UNL1        0.0338
     30 H         145.1634  143.4368  159.4702 H       1  UNL1        0.2103
     31 C         139.5762  140.8197  170.0912 C.2     1  UNL1        0.0774
     32 O         138.8863  141.9905  170.7262 O.co2   1  UNL1       -0.5444
     33 O         139.6192  139.4991  170.8012 O.co2   1  UNL1       -0.5444
@<TRIPOS>UNITY_ATOM_ATTR
32 1
charge -1
@<TRIPOS>BOND
     1    14    15    1
     2    15    16   ar
     3    16    17   ar
     4    17     1    1
     5     1     2   ar
     6     2     3   ar
     7     3    31    1
     8    31    32   ar
     9    31    33   ar
    10     3     4   ar
    11     4     5    2
    12     4     6   ar
    13     6     7   ar
    14     7     8   ar
    15     8     9    1
    16     8    10   ar
    17    25    10    1
    18    25    26    1
    19    26    27    1
    20    27    28    1
    21    27    29    1
    22    10    11   ar
    23    11    12    1
    24    11    13   ar
    25    17    18   ar
    26    18    19    1
    27    18    20   ar
    28    20    21   ar
    29    21    22    1
    30    21    15   ar
    31    13     1   ar
    32    13     6   ar
    33    29    25    1
    34    14    23    1
    35    14    24    1
    36    28    30    1
@<TRIPOS>MOLECULE
*****
 33 36 0 0 0
SMALL
GASTEIGER

@<TRIPOS>ATOM
      1 N         140.0920  142.7661  166.2891 N.ar    1  UNL1       -0.2874
      2 C         140.2869  143.3063  167.6748 C.ar    1  UNL1        0.0858
      3 C         140.1715  142.3928  168.8589 C.ar    1  UNL1        0.0705
      4 C         139.8611  140.9392  168.6573 C.ar    1  UNL1        0.1996
      5 O         139.7457  140.0257  169.8415 O.2     1  UNL1       -0.2864
      6 C         139.6662  140.3990  167.2716 C.ar    1  UNL1        0.0582
      7 C         139.3558  138.9454  167.0700 C.ar    1  UNL1        0.0340
      8 C         139.1609  138.4053  165.6843 C.ar    1  UNL1        0.1371
      9 F         138.8506  136.9516  165.4827 F       1  UNL1       -0.2045
     10 C         139.2764  139.3188  164.5001 C.ar    1  UNL1        0.0171
     11 C         139.5867  140.7724  164.7017 C.ar    1  UNL1        0.0720
     12 CL        139.7022  141.6859  163.5176 Cl      1  UNL1       -0.0810
     13 C         139.7816  141.3125  166.0875 C.ar    1  UNL1        0.0788
     14 N         143.0126  145.1572  162.7179 N.pl3   1  UNL1       -0.3408
     15 C         141.6677  144.8752  163.3193 C.ar    1  UNL1        0.1548
     16 N         141.5523  143.9617  164.5035 N.ar    1  UNL1       -0.2091
     17 C         140.2074  143.6796  165.1049 C.ar    1  UNL1        0.1769
     18 C         138.9779  144.3111  164.5221 C.ar    1  UNL1        0.1767
     19 F         137.6330  144.0290  165.1235 F       1  UNL1       -0.2009
     20 C         139.0933  145.2245  163.3379 C.ar    1  UNL1        0.0652
     21 C         140.4382  145.5066  162.7365 C.ar    1  UNL1        0.1734
     22 F         140.5536  146.4201  161.5524 F       1  UNL1       -0.2012
     23 H         143.8196  144.7428  163.1004 H       1  UNL1        0.1438
     24 H         143.0884  145.7568  161.9407 H       1  UNL1        0.1438
     25 C         139.0814  138.7786  163.1144 C.3     1  UNL1        0.0302
     26 C         139.8963  137.9328  162.1814 C.3     1  UNL1        0.0338
     27 C         138.8058  138.0147  161.1547 C.3     1  UNL1        0.1112
     28 O         138.6108  137.4745  159.7689 O.3     1  UNL1       -0.3844
     29 C         137.9909  138.8605  162.0877 C.3     1  UNL1        0.0338
     30 H         137.7474  137.7581  159.4299 H       1  UNL1        0.2103
     31 C         140.3664  142.9329  170.2447 C.2     1  UNL1        0.0774
     32 O         139.1760  143.2492  171.1007 O.co2   1  UNL1       -0.5444
     33 O         141.7518  143.1567  170.7744 O.co2   1  UNL1       -0.5444
@<TRIPOS>UNITY_ATOM_ATTR
32 1
charge -1
@<TRIPOS>BOND
     1    14    15    1
     2    15    16   ar
     3    16    17   ar
     4    17     1    1
     5     1     2   ar
     6     2     3   ar
     7     3    31    1
     8    31    32   ar
     9    31    33   ar
    10     3     4   ar
    11     4     5    2
    12     4     6   ar
    13     6     7   ar
    14     7     8   ar
    15     8     9    1
    16     8    10   ar
    17    25    10    1
    18    25    26    1
    19    26    27    1
    20    27    28    1
    21    27    29    1
    22    10    11   ar
    23    11    12    1
    24    11    13   ar
    25    17    18   ar
    26    18    19    1
    27    18    20   ar
    28    20    21   ar
    29    21    22    1
    30    21    15   ar
    31    13     1   ar
    32    13     6   ar
    33    29    25    1
    34    14    23    1
    35    14    24    1
    36    28    30    1
@<TRIPOS>MOLECULE
*****
 33 36 0 0 0
SMALL
GASTEIGER

@<TRIPOS>ATOM
      1 N         140.7646  142.8348  166.3168 N.ar    1  UNL1       -0.2874
      2 C         140.3508  143.4547  167.6185 C.ar    1  UNL1        0.0858
      3 C         140.6425  142.7508  168.9106 C.ar    1  UNL1        0.0705
      4 C         141.3480  141.4271  168.9009 C.ar    1  UNL1        0.1996
      5 O         141.6397  140.7232  170.1930 O.2     1  UNL1       -0.2864
      6 C         141.7617  140.8072  167.5991 C.ar    1  UNL1        0.0582
      7 C         142.4672  139.4835  167.5894 C.ar    1  UNL1        0.0340
      8 C         142.8809  138.8637  166.2877 C.ar    1  UNL1        0.1371
      9 F         143.5864  137.5399  166.2780 F       1  UNL1       -0.2045
     10 C         142.5892  139.5675  164.9956 C.ar    1  UNL1        0.0171
     11 C         141.8838  140.8913  165.0053 C.ar    1  UNL1        0.0720
     12 CL        141.5921  141.5952  163.7132 Cl      1  UNL1       -0.0810
     13 C         141.4700  141.5111  166.3071 C.ar    1  UNL1        0.0788
     14 N         137.4274  144.1243  162.5484 N.pl3   1  UNL1       -0.3408
     15 C         138.8043  144.1834  163.1405 C.ar    1  UNL1        0.1548
     16 N         139.0960  143.4795  164.4326 N.ar    1  UNL1       -0.2091
     17 C         140.4729  143.5387  165.0247 C.ar    1  UNL1        0.1769
     18 C         141.5581  144.3018  164.3247 C.ar    1  UNL1        0.1767
     19 F         142.9351  144.3609  164.9168 F       1  UNL1       -0.2009
     20 C         141.2665  145.0056  163.0326 C.ar    1  UNL1        0.0652
     21 C         139.8895  144.9465  162.4405 C.ar    1  UNL1        0.1734
     22 F         139.5979  145.6503  161.1484 F       1  UNL1       -0.2012
     23 H         136.7151  143.6235  163.0078 H       1  UNL1        0.1438
     24 H         137.2359  144.5862  161.7003 H       1  UNL1        0.1438
     25 C         143.0029  138.9477  163.6938 C.3     1  UNL1        0.0302
     26 C         142.3821  137.9713  162.7393 C.3     1  UNL1        0.0338
     27 C         143.5881  138.0711  161.8529 C.3     1  UNL1        0.1112
     28 O         144.0019  137.4512  160.5511 O.3     1  UNL1       -0.3844
     29 C         144.2089  139.0475  162.8074 C.3     1  UNL1        0.0338
     30 H         144.8786  137.7816  160.2999 H       1  UNL1        0.2103
     31 C         140.2288  143.3706  170.2124 C.2     1  UNL1        0.0774
     32 O         139.9014  142.4983  171.3879 O.co2   1  UNL1       -0.5444
     33 O         140.1424  144.8628  170.3387 O.co2   1  UNL1       -0.5444
@<TRIPOS>UNITY_ATOM_ATTR
32 1
charge -1
@<TRIPOS>BOND
     1    14    15    1
     2    15    16   ar
     3    16    17   ar
     4    17     1    1
     5     1     2   ar
     6     2     3   ar
     7     3    31    1
     8    31    32   ar
     9    31    33   ar
    10     3     4   ar
    11     4     5    2
    12     4     6   ar
    13     6     7   ar
    14     7     8   ar
    15     8     9    1
    16     8    10   ar
    17    25    10    1
    18    25    26    1
    19    26    27    1
    20    27    28    1
    21    27    29    1
    22    10    11   ar
    23    11    12    1
    24    11    13   ar
    25    17    18   ar
    26    18    19    1
    27    18    20   ar
    28    20    21   ar
    29    21    22    1
    30    21    15   ar
    31    13     1   ar
    32    13     6   ar
    33    29    25    1
    34    14    23    1
    35    14    24    1
    36    28    30    1
@<TRIPOS>MOLECULE
*****
 33 36 0 0 0
SMALL
GASTEIGER

@<TRIPOS>ATOM
      1 N         140.4704  141.1742  163.1233 N.ar    1  UNL1       -0.2874
      2 C         140.1632  140.9216  161.6770 C.ar    1  UNL1        0.0858
      3 C         139.2108  139.8285  161.2924 C.ar    1  UNL1        0.0705
      4 C         138.5655  138.9881  162.3540 C.ar    1  UNL1        0.1996
      5 O         137.6130  137.8949  161.9693 O.2     1  UNL1       -0.2864
      6 C         138.8726  139.2406  163.8003 C.ar    1  UNL1        0.0582
      7 C         138.2272  138.4002  164.8620 C.ar    1  UNL1        0.0340
      8 C         138.5343  138.6527  166.3083 C.ar    1  UNL1        0.1371
      9 F         137.8890  137.8123  167.3700 F       1  UNL1       -0.2045
     10 C         139.4868  139.7459  166.6930 C.ar    1  UNL1        0.0171
     11 C         140.1322  140.5863  165.6313 C.ar    1  UNL1        0.0720
     12 CL        141.0846  141.6794  166.0160 Cl      1  UNL1       -0.0810
     13 C         139.8250  140.3337  164.1850 C.ar    1  UNL1        0.0788
     14 N         145.2663  142.7271  164.3833 N.pl3   1  UNL1       -0.3408
     15 C         143.8208  143.0437  164.1380 C.ar    1  UNL1        0.1548
     16 N         142.8684  141.9506  163.7533 N.ar    1  UNL1       -0.2091
     17 C         141.4229  142.2673  163.5080 C.ar    1  UNL1        0.1769
     18 C         140.9298  143.6771  163.6474 C.ar    1  UNL1        0.1767
     19 F         139.4842  143.9937  163.4021 F       1  UNL1       -0.2009
     20 C         141.8822  144.7702  164.0321 C.ar    1  UNL1        0.0652
     21 C         143.3278  144.4535  164.2774 C.ar    1  UNL1        0.1734
     22 F         144.2802  145.5466  164.6621 F       1  UNL1       -0.2012
     23 H         145.5900  141.8018  164.2918 H       1  UNL1        0.1438
     24 H         145.8915  143.4445  164.6358 H       1  UNL1        0.1438
     25 C         139.7939  139.9984  168.1393 C.3     1  UNL1        0.0302
     26 C         138.9861  140.3802  169.3442 C.3     1  UNL1        0.0338
     27 C         140.2282  140.3557  170.1847 C.3     1  UNL1        0.1112
     28 O         140.5354  140.6083  171.6311 O.3     1  UNL1       -0.3844
     29 C         141.0361  139.9739  168.9799 C.3     1  UNL1        0.0338
     30 H         141.4854  140.4876  171.7858 H       1  UNL1        0.2103
     31 C         138.9036  139.5759  159.8460 C.2     1  UNL1        0.0774
     32 O         139.9119  138.8878  158.9742 O.co2   1  UNL1       -0.5444
     33 O         137.5882  140.0114  159.2715 O.co2   1  UNL1       -0.5444
@<TRIPOS>UNITY_ATOM_ATTR
32 1
charge -1
@<TRIPOS>BOND
     1    14    15    1
     2    15    16   ar
     3    16    17   ar
     4    17     1    1
     5     1     2   ar
     6     2     3   ar
     7     3    31    1
     8    31    32   ar
     9    31    33   ar
    10     3     4   ar
    11     4     5    2
    12     4     6   ar
    13     6     7   ar
    14     7     8   ar
    15     8     9    1
    16     8    10   ar
    17    25    10    1
    18    25    26    1
    19    26    27    1
    20    27    28    1
    21    27    29    1
    22    10    11   ar
    23    11    12    1
    24    11    13   ar
    25    17    18   ar
    26    18    19    1
    27    18    20   ar
    28    20    21   ar
    29    21    22    1
    30    21    15   ar
    31    13     1   ar
    32    13     6   ar
    33    29    25    1
    34    14    23    1
    35    14    24    1
    36    28    30    1
