@<TRIPOS>MOLECULE
*****
 29 32 0 0 0
SMALL
GASTEIGER

@<TRIPOS>ATOM
      1 C         141.1989  142.4164  165.5734 C.2     1  UNL1        0.0021
      2 C         142.5942  142.1118  165.1147 C.2     1  UNL1        0.0130
      3 C         143.0438  142.5362  163.7480 C.3     1  UNL1        0.1542
      4 C         143.9894  141.8071  164.6559 C.3     1  UNL1        0.0614
      5 C         145.3846  141.5025  164.1970 C.3     1  UNL1        0.0725
      6 N         145.8342  141.9270  162.8304 N.3     1  UNL1       -0.2972
      7 C         144.8886  142.6561  161.9226 C.3     1  UNL1        0.0725
      8 C         143.4934  142.9607  162.3814 C.3     1  UNL1        0.0614
      9 O         142.0981  143.2654  162.8402 O.3     1  UNL1       -0.4785
     10 C         140.7029  143.5700  163.2990 C.ar    1  UNL1        0.1386
     11 C         139.7572  144.2991  162.3911 C.ar    1  UNL1        0.0369
     12 C         138.3620  144.6037  162.8499 C.ar    1  UNL1        0.0031
     13 C         137.9124  144.1793  164.2166 C.ar    1  UNL1        0.0002
     14 C         138.8580  143.4502  165.1244 C.ar    1  UNL1        0.0030
     15 C         140.2533  143.1455  164.6656 C.ar    1  UNL1        0.0338
     16 H         146.1208  141.0806  162.3386 H       1  UNL1        0.1233
     17 C         140.3055  140.5790  167.1784 C.ar    1  UNL1        0.0536
     18 C         139.8559  140.1545  168.5450 C.ar    1  UNL1        0.0045
     19 C         139.8501  141.1430  169.6733 C.ar    1  UNL1        0.0001
     20 C         140.2939  142.5558  169.4350 C.ar    1  UNL1        0.0000
     21 C         140.7435  142.9803  168.0683 C.ar    1  UNL1        0.0001
     22 C         140.7493  141.9919  166.9401 C.ar    1  UNL1        0.0043
     23 N         141.5267  138.7488  165.7968 N.am    1  UNL1       -0.2761
     24 C         140.3113  139.5906  166.0501 C.2     1  UNL1        0.2490
     25 O         139.1018  139.4441  165.1752 O.2     1  UNL1       -0.2699
     26 C         141.9090  138.2029  163.2857 C.3     1  UNL1        0.0233
     27 C         141.5325  137.7603  164.6685 C.3     1  UNL1        0.0938
     28 C         142.7362  138.8953  166.6718 C.3     1  UNL1        0.0938
     29 C         143.9929  138.1438  166.3462 C.3     1  UNL1        0.0233
@<TRIPOS>BOND
     1    26    27    1
     2    27    23    1
     3    23    28    1
     4    28    29    1
     5    23    24   am
     6    24    25    2
     7    24    17    1
     8    17    18   ar
     9    18    19   ar
    10    19    20   ar
    11    20    21   ar
    12    21    22   ar
    13    22     1    1
    14     1     2    2
    15     2     3    1
    16     3     4    1
    17     4     5    1
    18     5     6    1
    19     6     7    1
    20     7     8    1
    21     3     9    1
    22     9    10    1
    23    10    11   ar
    24    11    12   ar
    25    12    13   ar
    26    13    14   ar
    27    14    15   ar
    28    22    17   ar
    29    15     1    1
    30     8     3    1
    31    15    10   ar
    32     6    16    1
@<TRIPOS>MOLECULE
*****
 29 32 0 0 0
SMALL
GASTEIGER

@<TRIPOS>ATOM
      1 C         139.7297  140.8443  165.9421 C.2     1  UNL1        0.0021
      2 C         139.4378  139.6740  165.0503 C.2     1  UNL1        0.0130
      3 C         138.7191  139.8826  163.7503 C.3     1  UNL1        0.1542
      4 C         139.1458  138.5037  164.1585 C.3     1  UNL1        0.0614
      5 C         138.8539  137.3335  163.2668 C.3     1  UNL1        0.0725
      6 N         138.1352  137.5421  161.9668 N.3     1  UNL1       -0.2972
      7 C         137.7086  138.9209  161.5585 C.3     1  UNL1        0.0725
      8 C         138.0005  140.0912  162.4503 C.3     1  UNL1        0.0614
      9 O         138.2925  141.2615  163.3420 O.3     1  UNL1       -0.4785
     10 C         138.5844  142.4317  164.2338 C.ar    1  UNL1        0.1386
     11 C         138.1577  143.8107  163.8255 C.ar    1  UNL1        0.0369
     12 C         138.4497  144.9809  164.7173 C.ar    1  UNL1        0.0031
     13 C         139.1683  144.7723  166.0173 C.ar    1  UNL1        0.0002
     14 C         139.5950  143.3935  166.4256 C.ar    1  UNL1        0.0030
     15 C         139.3031  142.2231  165.5338 C.ar    1  UNL1        0.0338
     16 H         137.2909  136.9710  162.0022 H       1  UNL1        0.1233
     17 C         141.9379  140.7995  167.3104 C.ar    1  UNL1        0.0536
     18 C         142.6565  140.5909  168.6104 C.ar    1  UNL1        0.0045
     19 C         141.8856  140.2185  169.8421 C.ar    1  UNL1        0.0001
     20 C         140.3962  140.0547  169.7738 C.ar    1  UNL1        0.0000
     21 C         139.6776  140.2633  168.4738 C.ar    1  UNL1        0.0001
     22 C         140.4484  140.6357  167.2421 C.ar    1  UNL1        0.0043
     23 N         143.2470  140.0999  165.1781 N.am    1  UNL1       -0.2761
     24 C         142.7087  141.1719  166.0786 C.2     1  UNL1        0.2490
     25 O         142.9412  142.6163  165.7474 O.2     1  UNL1       -0.2699
     26 C         145.4782  140.7997  164.0459 C.3     1  UNL1        0.0233
     27 C         144.0178  140.4723  163.9464 C.3     1  UNL1        0.0938
     28 C         143.0145  138.6555  165.5093 C.3     1  UNL1        0.0938
     29 C         143.9298  137.9483  166.4645 C.3     1  UNL1        0.0233
@<TRIPOS>BOND
     1    26    27    1
     2    27    23    1
     3    23    28    1
     4    28    29    1
     5    23    24   am
     6    24    25    2
     7    24    17    1
     8    17    18   ar
     9    18    19   ar
    10    19    20   ar
    11    20    21   ar
    12    21    22   ar
    13    22     1    1
    14     1     2    2
    15     2     3    1
    16     3     4    1
    17     4     5    1
    18     5     6    1
    19     6     7    1
    20     7     8    1
    21     3     9    1
    22     9    10    1
    23    10    11   ar
    24    11    12   ar
    25    12    13   ar
    26    13    14   ar
    27    14    15   ar
    28    22    17   ar
    29    15     1    1
    30     8     3    1
    31    15    10   ar
    32     6    16    1
@<TRIPOS>MOLECULE
*****
 29 32 0 0 0
SMALL
GASTEIGER

@<TRIPOS>ATOM
      1 C         142.0825  142.0403  165.5214 C.2     1  UNL1        0.0021
      2 C         140.7223  142.5943  165.2164 C.2     1  UNL1        0.0130
      3 C         140.4332  143.1692  163.8614 C.3     1  UNL1        0.1542
      4 C         139.3622  143.1483  164.9113 C.3     1  UNL1        0.0614
      5 C         138.0021  143.7024  164.6062 C.3     1  UNL1        0.0725
      6 N         137.7130  144.2773  163.2512 N.3     1  UNL1       -0.2972
      7 C         138.7841  144.2982  162.2013 C.3     1  UNL1        0.0725
      8 C         140.1442  143.7442  162.5064 C.3     1  UNL1        0.0614
      9 O         141.5044  143.1901  162.8115 O.3     1  UNL1       -0.4785
     10 C         142.8645  142.6361  163.1166 C.ar    1  UNL1        0.1386
     11 C         143.9357  142.6570  162.0667 C.ar    1  UNL1        0.0369
     12 C         145.2958  142.1030  162.3717 C.ar    1  UNL1        0.0031
     13 C         145.5848  141.5280  163.7267 C.ar    1  UNL1        0.0002
     14 C         144.5137  141.5071  164.7766 C.ar    1  UNL1        0.0030
     15 C         143.1535  142.0612  164.4715 C.ar    1  UNL1        0.0338
     16 H         137.4249  145.2448  163.3972 H       1  UNL1        0.1233
     17 C         142.1918  139.9965  167.1217 C.ar    1  UNL1        0.0536
     18 C         142.4808  139.4216  168.4767 C.ar    1  UNL1        0.0045
     19 C         142.9495  140.3155  169.5863 C.ar    1  UNL1        0.0001
     20 C         143.1292  141.7843  169.3409 C.ar    1  UNL1        0.0000
     21 C         142.8402  142.3593  167.9860 C.ar    1  UNL1        0.0001
     22 C         142.3715  141.4654  166.8764 C.ar    1  UNL1        0.0043
     23 N         140.2565  138.8560  165.8166 N.am    1  UNL1       -0.2761
     24 C         141.7230  139.1026  166.0122 C.2     1  UNL1        0.2490
     25 O         142.7209  138.4553  165.0982 O.2     1  UNL1       -0.2699
     26 C         139.4003  138.5504  163.3827 C.3     1  UNL1        0.0233
     27 C         139.7877  137.9621  164.7069 C.3     1  UNL1        0.0938
     28 C         139.2586  139.5033  166.7305 C.3     1  UNL1        0.0938
     29 C         137.9180  138.8666  166.9487 C.3     1  UNL1        0.0233
@<TRIPOS>BOND
     1    26    27    1
     2    27    23    1
     3    23    28    1
     4    28    29    1
     5    23    24   am
     6    24    25    2
     7    24    17    1
     8    17    18   ar
     9    18    19   ar
    10    19    20   ar
    11    20    21   ar
    12    21    22   ar
    13    22     1    1
    14     1     2    2
    15     2     3    1
    16     3     4    1
    17     4     5    1
    18     5     6    1
    19     6     7    1
    20     7     8    1
    21     3     9    1
    22     9    10    1
    23    10    11   ar
    24    11    12   ar
    25    12    13   ar
    26    13    14   ar
    27    14    15   ar
    28    22    17   ar
    29    15     1    1
    30     8     3    1
    31    15    10   ar
    32     6    16    1
@<TRIPOS>MOLECULE
*****
 29 32 0 0 0
SMALL
GASTEIGER

@<TRIPOS>ATOM
      1 C         140.1738  142.3053  166.2334 C.2     1  UNL1        0.0021
      2 C         140.6279  142.6170  167.6287 C.2     1  UNL1        0.0130
      3 C         140.4694  141.5948  168.7149 C.3     1  UNL1        0.1542
      4 C         141.0820  142.9287  169.0238 C.3     1  UNL1        0.0614
      5 C         141.5361  143.2404  170.4190 C.3     1  UNL1        0.0725
      6 N         141.3776  142.2182  171.5053 N.3     1  UNL1       -0.2972
      7 C         140.7650  140.8843  171.1964 C.3     1  UNL1        0.0725
      8 C         140.3109  140.5726  169.8012 C.3     1  UNL1        0.0614
      9 O         139.8568  140.2609  168.4059 O.3     1  UNL1       -0.4785
     10 C         139.4027  139.9492  167.0107 C.ar    1  UNL1        0.1386
     11 C         138.7901  138.6153  166.7017 C.ar    1  UNL1        0.0369
     12 C         138.3360  138.3037  165.3065 C.ar    1  UNL1        0.0031
     13 C         138.4945  139.3259  164.2203 C.ar    1  UNL1        0.0002
     14 C         139.1071  140.6597  164.5292 C.ar    1  UNL1        0.0030
     15 C         139.5612  140.9714  165.9245 C.ar    1  UNL1        0.0338
     16 H         140.8016  142.6459  172.2304 H       1  UNL1        0.1233
     17 C         141.6507  143.4808  164.4481 C.ar    1  UNL1        0.0536
     18 C         141.8092  144.5030  163.3618 C.ar    1  UNL1        0.0045
     19 C         140.6494  145.3719  162.9746 C.ar    1  UNL1        0.0001
     20 C         139.3311  145.2186  163.6736 C.ar    1  UNL1        0.0000
     21 C         139.1726  144.1964  164.7599 C.ar    1  UNL1        0.0001
     22 C         140.3323  143.3275  165.1471 C.ar    1  UNL1        0.0043
     23 N         143.0937  141.3539  164.0691 N.am    1  UNL1       -0.2761
     24 C         142.8104  142.6119  164.8353 C.2     1  UNL1        0.2490
     25 O         143.6868  143.0010  165.9888 O.2     1  UNL1       -0.2699
     26 C         145.6325  140.8120  163.9654 C.3     1  UNL1        0.0233
     27 C         144.2535  140.4849  164.4563 C.3     1  UNL1        0.0938
     28 C         142.2172  140.9648  162.9157 C.3     1  UNL1        0.0938
     29 C         142.0433  139.5177  162.5606 C.3     1  UNL1        0.0233
@<TRIPOS>BOND
     1    26    27    1
     2    27    23    1
     3    23    28    1
     4    28    29    1
     5    23    24   am
     6    24    25    2
     7    24    17    1
     8    17    18   ar
     9    18    19   ar
    10    19    20   ar
    11    20    21   ar
    12    21    22   ar
    13    22     1    1
    14     1     2    2
    15     2     3    1
    16     3     4    1
    17     4     5    1
    18     5     6    1
    19     6     7    1
    20     7     8    1
    21     3     9    1
    22     9    10    1
    23    10    11   ar
    24    11    12   ar
    25    12    13   ar
    26    13    14   ar
    27    14    15   ar
    28    22    17   ar
    29    15     1    1
    30     8     3    1
    31    15    10   ar
    32     6    16    1
@<TRIPOS>MOLECULE
*****
 29 32 0 0 0
SMALL
GASTEIGER

@<TRIPOS>ATOM
      1 C         140.7630  141.5993  165.7841 C.2     1  UNL1        0.0021
      2 C         140.5471  141.1301  167.1924 C.2     1  UNL1        0.0130
      3 C         141.5678  140.2536  167.8557 C.3     1  UNL1        0.1542
      4 C         140.3312  140.6609  168.6007 C.3     1  UNL1        0.0614
      5 C         140.1154  140.1917  170.0089 C.3     1  UNL1        0.0725
      6 N         141.1360  139.3152  170.6722 N.3     1  UNL1       -0.2972
      7 C         142.3726  138.9079  169.9272 C.3     1  UNL1        0.0725
      8 C         142.5885  139.3771  168.5190 C.3     1  UNL1        0.0614
      9 O         142.8044  139.8463  167.1107 O.3     1  UNL1       -0.4785
     10 C         143.0203  140.3155  165.7024 C.ar    1  UNL1        0.1386
     11 C         144.2569  139.9082  164.9574 C.ar    1  UNL1        0.0369
     12 C         144.4727  140.3774  163.5491 C.ar    1  UNL1        0.0031
     13 C         143.4521  141.2539  162.8858 C.ar    1  UNL1        0.0002
     14 C         142.2155  141.6612  163.6308 C.ar    1  UNL1        0.0030
     15 C         141.9996  141.1920  165.0391 C.ar    1  UNL1        0.0338
     16 H         140.6567  138.4555  170.9395 H       1  UNL1        0.1233
     17 C         138.5922  141.8599  164.3806 C.ar    1  UNL1        0.0536
     18 C         137.5715  142.7364  163.7173 C.ar    1  UNL1        0.0045
     19 C         137.7010  144.2289  163.7942 C.ar    1  UNL1        0.0001
     20 C         138.8512  144.8447  164.5343 C.ar    1  UNL1        0.0000
     21 C         139.8718  143.9682  165.1976 C.ar    1  UNL1        0.0001
     22 C         139.7424  142.4758  165.1208 C.ar    1  UNL1        0.0043
     23 N         138.8670  139.6430  163.0542 N.am    1  UNL1       -0.2761
     24 C         138.4627  140.3675  164.3038 C.2     1  UNL1        0.2490
     25 O         137.9290  139.5996  165.4766 O.2     1  UNL1       -0.2699
     26 C         139.7799  137.2739  163.6058 C.3     1  UNL1        0.0233
     27 C         138.7375  138.1505  162.9773 C.3     1  UNL1        0.0938
     28 C         139.4007  140.4108  161.8814 C.3     1  UNL1        0.0938
     29 C         140.4096  139.7798  160.9682 C.3     1  UNL1        0.0233
@<TRIPOS>BOND
     1    26    27    1
     2    27    23    1
     3    23    28    1
     4    28    29    1
     5    23    24   am
     6    24    25    2
     7    24    17    1
     8    17    18   ar
     9    18    19   ar
    10    19    20   ar
    11    20    21   ar
    12    21    22   ar
    13    22     1    1
    14     1     2    2
    15     2     3    1
    16     3     4    1
    17     4     5    1
    18     5     6    1
    19     6     7    1
    20     7     8    1
    21     3     9    1
    22     9    10    1
    23    10    11   ar
    24    11    12   ar
    25    12    13   ar
    26    13    14   ar
    27    14    15   ar
    28    22    17   ar
    29    15     1    1
    30     8     3    1
    31    15    10   ar
    32     6    16    1
@<TRIPOS>MOLECULE
*****
 29 32 0 0 0
SMALL
GASTEIGER

@<TRIPOS>ATOM
      1 C         140.3915  142.3399  166.3595 C.2     1  UNL1        0.0021
      2 C         140.4583  143.3522  165.2546 C.2     1  UNL1        0.0130
      3 C         139.6970  143.1249  163.9823 C.3     1  UNL1        0.1542
      4 C         140.5250  144.3644  164.1496 C.3     1  UNL1        0.0614
      5 C         140.5917  145.3766  163.0447 C.3     1  UNL1        0.0725
      6 N         139.8304  145.1494  161.7724 N.3     1  UNL1       -0.2972
      7 C         139.0024  143.9099  161.6050 C.3     1  UNL1        0.0725
      8 C         138.9357  142.8977  162.7099 C.3     1  UNL1        0.0614
      9 O         138.8689  141.8854  163.8149 O.3     1  UNL1       -0.4785
     10 C         138.8022  140.8732  164.9198 C.ar    1  UNL1        0.1386
     11 C         137.9742  139.6336  164.7525 C.ar    1  UNL1        0.0369
     12 C         137.9074  138.6214  165.8574 C.ar    1  UNL1        0.0031
     13 C         138.6687  138.8486  167.1297 C.ar    1  UNL1        0.0002
     14 C         139.4967  140.0881  167.2971 C.ar    1  UNL1        0.0030
     15 C         139.5635  141.1004  166.1921 C.ar    1  UNL1        0.0338
     16 H         140.5144  145.1510  161.0157 H       1  UNL1        0.1233
     17 C         142.5479  142.0352  167.7763 C.ar    1  UNL1        0.0536
     18 C         143.3092  142.2625  169.0486 C.ar    1  UNL1        0.0045
     19 C         142.6754  143.0216  170.1765 C.ar    1  UNL1        0.0001
     20 C         141.2803  143.5534  170.0320 C.ar    1  UNL1        0.0000
     21 C         140.5190  143.3262  168.7597 C.ar    1  UNL1        0.0001
     22 C         141.1528  142.5671  167.6318 C.ar    1  UNL1        0.0043
     23 N         143.9759  142.0060  165.6061 N.am    1  UNL1       -0.2761
     24 C         143.1817  141.2762  166.6484 C.2     1  UNL1        0.2490
     25 O         143.0213  139.7872  166.5629 O.2     1  UNL1       -0.2699
     26 C         143.7785  140.8074  163.3095 C.3     1  UNL1        0.0233
     27 C         144.6097  141.2470  164.4782 C.3     1  UNL1        0.0938
     28 C         144.1363  143.4950  165.6916 C.3     1  UNL1        0.0938
     29 C         144.0605  144.3302  164.4479 C.3     1  UNL1        0.0233
@<TRIPOS>BOND
     1    26    27    1
     2    27    23    1
     3    23    28    1
     4    28    29    1
     5    23    24   am
     6    24    25    2
     7    24    17    1
     8    17    18   ar
     9    18    19   ar
    10    19    20   ar
    11    20    21   ar
    12    21    22   ar
    13    22     1    1
    14     1     2    2
    15     2     3    1
    16     3     4    1
    17     4     5    1
    18     5     6    1
    19     6     7    1
    20     7     8    1
    21     3     9    1
    22     9    10    1
    23    10    11   ar
    24    11    12   ar
    25    12    13   ar
    26    13    14   ar
    27    14    15   ar
    28    22    17   ar
    29    15     1    1
    30     8     3    1
    31    15    10   ar
    32     6    16    1
@<TRIPOS>MOLECULE
*****
 29 32 0 0 0
SMALL
GASTEIGER

@<TRIPOS>ATOM
      1 C         141.6986  141.2691  165.2480 C.2     1  UNL1        0.0021
      2 C         140.3449  141.0393  164.6438 C.2     1  UNL1        0.0130
      3 C         139.7357  142.0795  163.7512 C.3     1  UNL1        0.1542
      4 C         138.9913  140.8096  164.0397 C.3     1  UNL1        0.0614
      5 C         137.6378  140.5799  163.4355 C.3     1  UNL1        0.0725
      6 N         137.0285  141.6201  162.5429 N.3     1  UNL1       -0.2972
      7 C         137.7728  142.8900  162.2544 C.3     1  UNL1        0.0725
      8 C         139.1264  143.1197  162.8585 C.3     1  UNL1        0.0614
      9 O         140.4801  143.3494  163.4627 O.3     1  UNL1       -0.4785
     10 C         141.8336  143.5792  164.0668 C.ar    1  UNL1        0.1386
     11 C         142.5780  144.8491  163.7783 C.ar    1  UNL1        0.0369
     12 C         143.9316  145.0788  164.3825 C.ar    1  UNL1        0.0031
     13 C         144.5408  144.0386  165.2751 C.ar    1  UNL1        0.0002
     14 C         143.7965  142.7687  165.5636 C.ar    1  UNL1        0.0030
     15 C         142.4429  142.5390  164.9595 C.ar    1  UNL1        0.0338
     16 H         136.1409  141.8890  162.9673 H       1  UNL1        0.1233
     17 C         143.1859  139.1615  165.5577 C.ar    1  UNL1        0.0536
     18 C         143.7952  138.1213  166.4504 C.ar    1  UNL1        0.0045
     19 C         143.5263  138.1485  167.9259 C.ar    1  UNL1        0.0001
     20 C         142.6482  139.2158  168.5087 C.ar    1  UNL1        0.0000
     21 C         142.0390  140.2560  167.6160 C.ar    1  UNL1        0.0001
     22 C         142.3078  140.2289  166.1406 C.ar    1  UNL1        0.0043
     23 N         142.5618  138.3449  163.1717 N.am    1  UNL1       -0.2761
     24 C         143.4548  139.1343  164.0823 C.2     1  UNL1        0.2490
     25 O         144.6166  139.8966  163.5175 O.2     1  UNL1       -0.2699
     26 C         144.0374  137.6013  161.1668 C.3     1  UNL1        0.0233
     27 C         142.8306  138.3177  161.6962 C.3     1  UNL1        0.0938
     28 C         141.3999  137.5826  163.7365 C.3     1  UNL1        0.0938
     29 C         140.1129  137.5006  162.9703 C.3     1  UNL1        0.0233
@<TRIPOS>BOND
     1    26    27    1
     2    27    23    1
     3    23    28    1
     4    28    29    1
     5    23    24   am
     6    24    25    2
     7    24    17    1
     8    17    18   ar
     9    18    19   ar
    10    19    20   ar
    11    20    21   ar
    12    21    22   ar
    13    22     1    1
    14     1     2    2
    15     2     3    1
    16     3     4    1
    17     4     5    1
    18     5     6    1
    19     6     7    1
    20     7     8    1
    21     3     9    1
    22     9    10    1
    23    10    11   ar
    24    11    12   ar
    25    12    13   ar
    26    13    14   ar
    27    14    15   ar
    28    22    17   ar
    29    15     1    1
    30     8     3    1
    31    15    10   ar
    32     6    16    1
@<TRIPOS>MOLECULE
*****
 29 32 0 0 0
SMALL
GASTEIGER

@<TRIPOS>ATOM
      1 C         140.4149  141.0193  164.9364 C.2     1  UNL1        0.0021
      2 C         140.6957  142.4200  164.4788 C.2     1  UNL1        0.0130
      3 C         140.3252  142.8431  163.0882 C.3     1  UNL1        0.1542
      4 C         140.9765  143.8205  164.0211 C.3     1  UNL1        0.0614
      5 C         141.2573  145.2211  163.5635 C.3     1  UNL1        0.0725
      6 N         140.8868  145.6443  162.1729 N.3     1  UNL1       -0.2972
      7 C         140.2356  144.6668  161.2400 C.3     1  UNL1        0.0725
      8 C         139.9548  143.2663  161.6976 C.3     1  UNL1        0.0614
      9 O         139.6739  141.8656  162.1552 O.3     1  UNL1       -0.4785
     10 C         139.3931  140.4650  162.6129 C.ar    1  UNL1        0.1386
     11 C         138.7418  139.4875  161.6799 C.ar    1  UNL1        0.0369
     12 C         138.4610  138.0869  162.1375 C.ar    1  UNL1        0.0031
     13 C         138.8315  137.6638  163.5281 C.ar    1  UNL1        0.0002
     14 C         139.4827  138.6412  164.4611 C.ar    1  UNL1        0.0030
     15 C         139.7636  140.0419  164.0034 C.ar    1  UNL1        0.0338
     16 H         141.7468  145.9548  161.7207 H       1  UNL1        0.1233
     17 C         142.1526  140.0447  166.6039 C.ar    1  UNL1        0.0536
     18 C         142.5230  139.6215  167.9945 C.ar    1  UNL1        0.0045
     19 C         141.5262  139.7498  169.1081 C.ar    1  UNL1        0.0001
     20 C         140.1591  140.3012  168.8311 C.ar    1  UNL1        0.0000
     21 C         139.7886  140.7244  167.4405 C.ar    1  UNL1        0.0001
     22 C         140.7853  140.5961  166.3270 C.ar    1  UNL1        0.0043
     23 N         144.0025  141.0895  165.1088 N.am    1  UNL1       -0.2761
     24 C         143.1493  139.9164  165.4903 C.2     1  UNL1        0.2490
     25 O         143.2927  138.6150  164.7584 O.2     1  UNL1       -0.2699
     26 C         144.5408  141.0173  162.5680 C.3     1  UNL1        0.0233
     27 C         144.9993  140.9613  163.9951 C.3     1  UNL1        0.0938
     28 C         143.8591  142.3909  165.8407 C.3     1  UNL1        0.0938
     29 C         144.5224  143.6272  165.3098 C.3     1  UNL1        0.0233
@<TRIPOS>BOND
     1    26    27    1
     2    27    23    1
     3    23    28    1
     4    28    29    1
     5    23    24   am
     6    24    25    2
     7    24    17    1
     8    17    18   ar
     9    18    19   ar
    10    19    20   ar
    11    20    21   ar
    12    21    22   ar
    13    22     1    1
    14     1     2    2
    15     2     3    1
    16     3     4    1
    17     4     5    1
    18     5     6    1
    19     6     7    1
    20     7     8    1
    21     3     9    1
    22     9    10    1
    23    10    11   ar
    24    11    12   ar
    25    12    13   ar
    26    13    14   ar
    27    14    15   ar
    28    22    17   ar
    29    15     1    1
    30     8     3    1
    31    15    10   ar
    32     6    16    1
@<TRIPOS>MOLECULE
*****
 29 32 0 0 0
SMALL
GASTEIGER

@<TRIPOS>ATOM
      1 C         140.9328  141.7563  164.9191 C.2     1  UNL1        0.0021
      2 C         140.2194  142.8803  164.2277 C.2     1  UNL1        0.0130
      3 C         140.8119  143.5001  162.9969 C.3     1  UNL1        0.1542
      4 C         139.5062  144.0042  163.5363 C.3     1  UNL1        0.0614
      5 C         138.7929  145.1281  162.8449 C.3     1  UNL1        0.0725
      6 N         139.3854  145.7479  161.6142 N.3     1  UNL1       -0.2972
      7 C         140.6911  145.2438  161.0748 C.3     1  UNL1        0.0725
      8 C         141.4043  144.1199  161.7661 C.3     1  UNL1        0.0614
      9 O         142.1177  142.9960  162.4575 O.3     1  UNL1       -0.4785
     10 C         142.8309  141.8721  163.1489 C.ar    1  UNL1        0.1386
     11 C         144.1367  141.3679  162.6095 C.ar    1  UNL1        0.0369
     12 C         144.8500  140.2440  163.3009 C.ar    1  UNL1        0.0031
     13 C         144.2575  139.6242  164.5317 C.ar    1  UNL1        0.0002
     14 C         142.9518  140.1283  165.0711 C.ar    1  UNL1        0.0030
     15 C         142.2385  141.2522  164.3797 C.ar    1  UNL1        0.0338
     16 H         139.5134  146.7395  161.8163 H       1  UNL1        0.1233
     17 C         139.2377  140.1271  166.0248 C.ar    1  UNL1        0.0536
     18 C         138.6453  139.5073  167.2556 C.ar    1  UNL1        0.0045
     19 C         139.1554  139.8968  168.6114 C.ar    1  UNL1        0.0001
     20 C         140.2580  140.9061  168.7364 C.ar    1  UNL1        0.0000
     21 C         140.8504  141.5260  167.5056 C.ar    1  UNL1        0.0001
     22 C         140.3403  141.1365  166.1499 C.ar    1  UNL1        0.0043
     23 N         139.2203  138.4808  164.0151 N.am    1  UNL1       -0.2761
     24 C         138.7277  139.7376  164.6691 C.2     1  UNL1        0.2490
     25 O         137.7250  140.6049  163.9674 O.2     1  UNL1       -0.2699
     26 C         139.2940  138.7204  161.4291 C.3     1  UNL1        0.0233
     27 C         138.7102  138.0913  162.6593 C.3     1  UNL1        0.0938
     28 C         140.2229  137.6135  164.7168 C.3     1  UNL1        0.0938
     29 C         141.4037  137.0735  163.9656 C.3     1  UNL1        0.0233
@<TRIPOS>BOND
     1    26    27    1
     2    27    23    1
     3    23    28    1
     4    28    29    1
     5    23    24   am
     6    24    25    2
     7    24    17    1
     8    17    18   ar
     9    18    19   ar
    10    19    20   ar
    11    20    21   ar
    12    21    22   ar
    13    22     1    1
    14     1     2    2
    15     2     3    1
    16     3     4    1
    17     4     5    1
    18     5     6    1
    19     6     7    1
    20     7     8    1
    21     3     9    1
    22     9    10    1
    23    10    11   ar
    24    11    12   ar
    25    12    13   ar
    26    13    14   ar
    27    14    15   ar
    28    22    17   ar
    29    15     1    1
    30     8     3    1
    31    15    10   ar
    32     6    16    1
