@<TRIPOS>MOLECULE
*****
 27 30 0 0 0
SMALL
GASTEIGER

@<TRIPOS>ATOM
      1 C         137.5994  137.9157  166.8373 C.3     1  UNL1        0.0737
      2 C         138.3062  139.1478  166.3553 C.ar    1  UNL1        0.1406
      3 N         139.1437  139.9519  167.3050 N.ar    1  UNL1       -0.2335
      4 C         139.8505  141.1840  166.8230 C.ar    1  UNL1        0.0793
      5 C         139.7198  141.6120  165.3913 C.ar    1  UNL1        0.0504
      6 C         138.8824  140.8078  164.4416 C.ar    1  UNL1        0.1343
      7 N         138.1755  139.5757  164.9236 N.ar    1  UNL1       -0.2160
      8 N         138.7517  141.2357  163.0099 N.pl3   1  UNL1       -0.2903
      9 C         139.2387  142.5891  162.5841 C.3     1  UNL1        0.1095
     10 C         139.1080  143.0169  161.1523 C.3     1  UNL1        0.0939
     11 N         138.4903  142.0915  160.1464 N.3     1  UNL1       -0.2686
     12 C         138.3596  142.5194  158.7147 C.3     1  UNL1        0.0897
     13 C         138.0033  140.7381  160.5721 C.3     1  UNL1        0.0939
     14 C         138.1340  140.3102  162.0038 C.3     1  UNL1        0.1095
     15 C         140.6879  141.9882  167.7727 C.3     1  UNL1        0.1191
     16 N         142.1502  141.6885  167.9216 N.3     1  UNL1       -0.2628
     17 C         142.9287  142.2946  169.0514 C.3     1  UNL1        0.0902
     18 C         142.8338  140.7828  166.9407 C.3     1  UNL1        0.0981
     19 C         142.8428  139.3003  167.1689 C.3     1  UNL1        0.0224
     20 C         143.5264  138.3946  166.1879 C.3     1  UNL1        0.0065
     21 C         144.2011  138.9713  164.9788 C.3     1  UNL1        0.0277
     22 C         144.1921  140.4539  164.7505 C.ar    1  UNL1       -0.0073
     23 C         144.8668  141.0306  163.5413 C.ar    1  UNL1       -0.0015
     24 C         144.8578  142.5131  163.3131 C.ar    1  UNL1        0.0203
     25 C         144.1742  143.4188  164.2940 C.ar    1  UNL1        0.0985
     26 N         143.4995  142.8421  165.5032 N.ar    1  UNL1       -0.2471
     27 C         143.5085  141.3596  165.7314 C.ar    1  UNL1        0.0695
@<TRIPOS>BOND
     1     1     2    1
     2     2     3   ar
     3     3     4   ar
     4     4    15    1
     5    15    16    1
     6    16    17    1
     7    18    16    1
     8    18    19    1
     9    19    20    1
    10    20    21    1
    11    21    22    1
    12    22    23   ar
    13    23    24   ar
    14    24    25   ar
    15    25    26   ar
    16    26    27   ar
    17     4     5   ar
    18     5     6   ar
    19     6     8    1
    20     8     9    1
    21     9    10    1
    22    10    11    1
    23    11    12    1
    24    11    13    1
    25    13    14    1
    26     6     7   ar
    27     7     2   ar
    28    27    18    1
    29    14     8    1
    30    27    22   ar
@<TRIPOS>MOLECULE
*****
 27 30 0 0 0
SMALL
GASTEIGER

@<TRIPOS>ATOM
      1 C         138.4667  144.6499  165.1473 C.3     1  UNL1        0.0737
      2 C         139.7557  143.8896  165.0442 C.ar    1  UNL1        0.1406
      3 N         140.3305  143.2200  166.2571 N.ar    1  UNL1       -0.2335
      4 C         141.6194  142.4597  166.1540 C.ar    1  UNL1        0.0793
      5 C         142.3336  142.3691  164.8379 C.ar    1  UNL1        0.0504
      6 C         141.7587  143.0388  163.6251 C.ar    1  UNL1        0.1343
      7 N         140.4697  143.7991  163.7282 N.ar    1  UNL1       -0.2160
      8 N         142.4728  142.9483  162.3091 N.pl3   1  UNL1       -0.2903
      9 C         143.8871  142.4513  162.2558 C.3     1  UNL1        0.1095
     10 C         144.6012  142.3608  160.9397 C.3     1  UNL1        0.0939
     11 N         143.9009  142.7672  159.6770 N.3     1  UNL1       -0.2686
     12 C         144.6150  142.6767  158.3610 C.3     1  UNL1        0.0897
     13 C         142.4866  143.2641  159.7303 C.3     1  UNL1        0.0939
     14 C         141.7726  143.3547  161.0463 C.3     1  UNL1        0.1095
     15 C         142.1943  141.7900  167.3668 C.3     1  UNL1        0.1191
     16 N         141.8334  140.3682  167.6804 N.3     1  UNL1       -0.2628
     17 C         142.5924  139.6165  168.7333 C.3     1  UNL1        0.0902
     18 C         140.7134  139.6982  166.9410 C.3     1  UNL1        0.0981
     19 C         139.3191  139.7416  167.4921 C.3     1  UNL1        0.0224
     20 C         138.1991  139.0716  166.7527 C.3     1  UNL1        0.0065
     21 C         138.4735  138.3582  165.4621 C.3     1  UNL1        0.0277
     22 C         139.8679  138.3147  164.9108 C.ar    1  UNL1       -0.0073
     23 C         140.1423  137.6013  163.6202 C.ar    1  UNL1       -0.0015
     24 C         141.5367  137.5579  163.0691 C.ar    1  UNL1        0.0203
     25 C         142.6567  138.2279  163.8085 C.ar    1  UNL1        0.0985
     26 N         142.3823  138.9414  165.0991 N.ar    1  UNL1       -0.2471
     27 C         140.9879  138.9848  165.6503 C.ar    1  UNL1        0.0695
@<TRIPOS>BOND
     1     1     2    1
     2     2     3   ar
     3     3     4   ar
     4     4    15    1
     5    15    16    1
     6    16    17    1
     7    18    16    1
     8    18    19    1
     9    19    20    1
    10    20    21    1
    11    21    22    1
    12    22    23   ar
    13    23    24   ar
    14    24    25   ar
    15    25    26   ar
    16    26    27   ar
    17     4     5   ar
    18     5     6   ar
    19     6     8    1
    20     8     9    1
    21     9    10    1
    22    10    11    1
    23    11    12    1
    24    11    13    1
    25    13    14    1
    26     6     7   ar
    27     7     2   ar
    28    27    18    1
    29    14     8    1
    30    27    22   ar
@<TRIPOS>MOLECULE
*****
 27 30 0 0 0
SMALL
GASTEIGER

@<TRIPOS>ATOM
      1 C         138.7280  137.6042  163.0748 C.3     1  UNL1        0.0737
      2 C         139.0657  139.0087  163.4788 C.ar    1  UNL1        0.1406
      3 N         139.1654  140.0849  162.4387 N.ar    1  UNL1       -0.2335
      4 C         139.5032  141.4894  162.8427 C.ar    1  UNL1        0.0793
      5 C         139.7413  141.8177  164.2869 C.ar    1  UNL1        0.0504
      6 C         139.6416  140.7415  165.3270 C.ar    1  UNL1        0.1343
      7 N         139.3038  139.3369  164.9229 N.ar    1  UNL1       -0.2160
      8 N         139.8797  141.0697  166.7711 N.pl3   1  UNL1       -0.2903
      9 C         139.5694  140.0556  167.8318 C.3     1  UNL1        0.1095
     10 C         139.8075  140.3839  169.2760 C.3     1  UNL1        0.0939
     11 N         140.3560  141.7263  169.6594 N.3     1  UNL1       -0.2686
     12 C         140.5941  142.0546  171.1035 C.3     1  UNL1        0.0897
     13 C         140.6663  142.7405  168.5986 C.3     1  UNL1        0.0939
     14 C         140.4282  142.4122  167.1545 C.3     1  UNL1        0.1095
     15 C         139.6028  142.5656  161.8026 C.3     1  UNL1        0.1191
     16 N         140.9488  143.0334  161.3340 N.3     1  UNL1       -0.2628
     17 C         141.2786  143.0239  159.8708 C.3     1  UNL1        0.0902
     18 C         141.9650  143.5108  162.3287 C.3     1  UNL1        0.0981
     19 C         141.8600  144.8921  162.9040 C.3     1  UNL1        0.0224
     20 C         142.8762  145.3694  163.8988 C.3     1  UNL1        0.0065
     21 C         143.9974  144.4656  164.3182 C.3     1  UNL1        0.0277
     22 C         144.1024  143.0842  163.7429 C.ar    1  UNL1       -0.0073
     23 C         145.2235  142.1803  164.1623 C.ar    1  UNL1       -0.0015
     24 C         145.3285  140.7990  163.5870 C.ar    1  UNL1        0.0203
     25 C         144.3123  140.3217  162.5923 C.ar    1  UNL1        0.0985
     26 N         143.1912  141.2256  162.1729 N.ar    1  UNL1       -0.2471
     27 C         143.0862  142.6068  162.7482 C.ar    1  UNL1        0.0695
@<TRIPOS>BOND
     1     1     2    1
     2     2     3   ar
     3     3     4   ar
     4     4    15    1
     5    15    16    1
     6    16    17    1
     7    18    16    1
     8    18    19    1
     9    19    20    1
    10    20    21    1
    11    21    22    1
    12    22    23   ar
    13    23    24   ar
    14    24    25   ar
    15    25    26   ar
    16    26    27   ar
    17     4     5   ar
    18     5     6   ar
    19     6     8    1
    20     8     9    1
    21     9    10    1
    22    10    11    1
    23    11    12    1
    24    11    13    1
    25    13    14    1
    26     6     7   ar
    27     7     2   ar
    28    27    18    1
    29    14     8    1
    30    27    22   ar
@<TRIPOS>MOLECULE
*****
 27 30 0 0 0
SMALL
GASTEIGER

@<TRIPOS>ATOM
      1 C         143.7933  138.4408  162.3815 C.3     1  UNL1        0.0737
      2 C         142.5024  138.9686  162.9338 C.ar    1  UNL1        0.1406
      3 N         141.4080  139.3984  162.0024 N.ar    1  UNL1       -0.2335
      4 C         140.1172  139.9261  162.5547 C.ar    1  UNL1        0.0793
      5 C         139.9207  140.0242  164.0386 C.ar    1  UNL1        0.0504
      6 C         141.0151  139.5945  164.9701 C.ar    1  UNL1        0.1343
      7 N         142.3060  139.0667  164.4177 N.ar    1  UNL1       -0.2160
      8 N         140.8186  139.6925  166.4539 N.pl3   1  UNL1       -0.2903
      9 C         142.0020  139.6255  167.3732 C.3     1  UNL1        0.1095
     10 C         141.8055  139.7236  168.8571 C.3     1  UNL1        0.0939
     11 N         140.4257  139.8886  169.4216 N.3     1  UNL1       -0.2686
     12 C         140.2292  139.9867  170.9054 C.3     1  UNL1        0.0897
     13 C         139.2423  139.9556  168.5023 C.3     1  UNL1        0.0939
     14 C         139.4387  139.8576  167.0185 C.3     1  UNL1        0.1095
     15 C         139.0228  140.3559  161.6232 C.3     1  UNL1        0.1191
     16 N         138.8332  141.8104  161.3094 N.3     1  UNL1       -0.2628
     17 C         138.5083  142.2394  159.9093 C.3     1  UNL1        0.0902
     18 C         138.9684  142.8359  162.3957 C.3     1  UNL1        0.0981
     19 C         137.7929  143.1641  163.2678 C.3     1  UNL1        0.0224
     20 C         137.9281  144.1896  164.3541 C.3     1  UNL1        0.0065
     21 C         139.2388  144.8869  164.5684 C.3     1  UNL1        0.0277
     22 C         140.4143  144.5587  163.6963 C.ar    1  UNL1       -0.0073
     23 C         141.7250  145.2559  163.9105 C.ar    1  UNL1       -0.0015
     24 C         142.9004  144.9277  163.0385 C.ar    1  UNL1        0.0203
     25 C         142.7652  143.9022  161.9521 C.ar    1  UNL1        0.0985
     26 N         141.4546  143.2050  161.7379 N.ar    1  UNL1       -0.2471
     27 C         140.2791  143.5332  162.6099 C.ar    1  UNL1        0.0695
@<TRIPOS>BOND
     1     1     2    1
     2     2     3   ar
     3     3     4   ar
     4     4    15    1
     5    15    16    1
     6    16    17    1
     7    18    16    1
     8    18    19    1
     9    19    20    1
    10    20    21    1
    11    21    22    1
    12    22    23   ar
    13    23    24   ar
    14    24    25   ar
    15    25    26   ar
    16    26    27   ar
    17     4     5   ar
    18     5     6   ar
    19     6     8    1
    20     8     9    1
    21     9    10    1
    22    10    11    1
    23    11    12    1
    24    11    13    1
    25    13    14    1
    26     6     7   ar
    27     7     2   ar
    28    27    18    1
    29    14     8    1
    30    27    22   ar
@<TRIPOS>MOLECULE
*****
 27 30 0 0 0
SMALL
GASTEIGER

@<TRIPOS>ATOM
      1 C         144.0465  138.9789  161.8979 C.3     1  UNL1        0.0737
      2 C         143.6469  140.1598  162.7319 C.ar    1  UNL1        0.1406
      3 N         143.4098  141.4909  162.0823 N.ar    1  UNL1       -0.2335
      4 C         143.0102  142.6719  162.9163 C.ar    1  UNL1        0.0793
      5 C         142.8478  142.5218  164.3999 C.ar    1  UNL1        0.0504
      6 C         143.0849  141.1907  165.0495 C.ar    1  UNL1        0.1343
      7 N         143.4845  140.0097  164.2154 N.ar    1  UNL1       -0.2160
      8 N         142.9225  141.0406  166.5331 N.pl3   1  UNL1       -0.2903
      9 C         142.6182  139.6950  167.1219 C.3     1  UNL1        0.1095
     10 C         142.4558  139.5450  168.6056 C.3     1  UNL1        0.0939
     11 N         142.5977  140.7405  169.5003 N.3     1  UNL1       -0.2686
     12 C         142.4353  140.5903  170.9839 C.3     1  UNL1        0.0897
     13 C         142.9020  142.0861  168.9115 C.3     1  UNL1        0.0939
     14 C         143.0644  142.2362  167.4279 C.3     1  UNL1        0.1095
     15 C         142.7731  144.0030  162.2667 C.3     1  UNL1        0.1191
     16 N         141.3876  144.3970  161.8480 N.3     1  UNL1       -0.2628
     17 C         141.1661  145.0667  160.5242 C.3     1  UNL1        0.0902
     18 C         140.2236  144.1212  162.7531 C.3     1  UNL1        0.0981
     19 C         139.9375  145.0361  163.9068 C.3     1  UNL1        0.0224
     20 C         138.7735  144.7603  164.8119 C.3     1  UNL1        0.0065
     21 C         137.8958  143.5697  164.5633 C.3     1  UNL1        0.0277
     22 C         138.1819  142.6547  163.4095 C.ar    1  UNL1       -0.0073
     23 C         137.3041  141.4641  163.1609 C.ar    1  UNL1       -0.0015
     24 C         137.5903  140.5493  162.0072 C.ar    1  UNL1        0.0203
     25 C         138.7542  140.8250  161.1021 C.ar    1  UNL1        0.0985
     26 N         139.6320  142.0157  161.3507 N.ar    1  UNL1       -0.2471
     27 C         139.3458  142.9305  162.5044 C.ar    1  UNL1        0.0695
@<TRIPOS>BOND
     1     1     2    1
     2     2     3   ar
     3     3     4   ar
     4     4    15    1
     5    15    16    1
     6    16    17    1
     7    18    16    1
     8    18    19    1
     9    19    20    1
    10    20    21    1
    11    21    22    1
    12    22    23   ar
    13    23    24   ar
    14    24    25   ar
    15    25    26   ar
    16    26    27   ar
    17     4     5   ar
    18     5     6   ar
    19     6     8    1
    20     8     9    1
    21     9    10    1
    22    10    11    1
    23    11    12    1
    24    11    13    1
    25    13    14    1
    26     6     7   ar
    27     7     2   ar
    28    27    18    1
    29    14     8    1
    30    27    22   ar
@<TRIPOS>MOLECULE
*****
 27 30 0 0 0
SMALL
GASTEIGER

@<TRIPOS>ATOM
      1 C         137.7217  138.4782  166.7915 C.3     1  UNL1        0.0737
      2 C         138.8336  138.9597  165.9073 C.ar    1  UNL1        0.1406
      3 N         140.1408  139.3827  166.5092 N.ar    1  UNL1       -0.2335
      4 C         141.2527  139.8642  165.6250 C.ar    1  UNL1        0.0793
      5 C         141.0574  139.9228  164.1389 C.ar    1  UNL1        0.0504
      6 C         139.7502  139.4998  163.5370 C.ar    1  UNL1        0.1343
      7 N         138.6382  139.0183  164.4213 N.ar    1  UNL1       -0.2160
      8 N         139.5548  139.5584  162.0510 N.pl3   1  UNL1       -0.2903
      9 C         138.7941  140.6970  161.4388 C.3     1  UNL1        0.1095
     10 C         138.5987  140.7556  159.9527 C.3     1  UNL1        0.0939
     11 N         139.1641  139.6755  159.0788 N.3     1  UNL1       -0.2686
     12 C         138.9688  139.7341  157.5928 C.3     1  UNL1        0.0897
     13 C         139.9249  138.5369  159.6910 C.3     1  UNL1        0.0939
     14 C         140.1202  138.4783  161.1770 C.3     1  UNL1        0.1095
     15 C         142.5600  140.2872  166.2269 C.3     1  UNL1        0.1191
     16 N         142.8067  141.7322  166.5447 N.3     1  UNL1       -0.2628
     17 C         142.9998  142.1648  167.9679 C.3     1  UNL1        0.0902
     18 C         142.8603  142.7447  165.4392 C.3     1  UNL1        0.0981
     19 C         144.1626  143.0419  164.7569 C.3     1  UNL1        0.0224
     20 C         144.2162  144.0544  163.6515 C.3     1  UNL1        0.0065
     21 C         142.9675  144.7696  163.2283 C.3     1  UNL1        0.0277
     22 C         141.6651  144.4724  163.9106 C.ar    1  UNL1       -0.0073
     23 C         140.4164  145.1876  163.4874 C.ar    1  UNL1       -0.0015
     24 C         139.1141  144.8904  164.1697 C.ar    1  UNL1        0.0203
     25 C         139.0605  143.8780  165.2752 C.ar    1  UNL1        0.0985
     26 N         140.3092  143.1627  165.6983 N.ar    1  UNL1       -0.2471
     27 C         141.6115  143.4599  165.0160 C.ar    1  UNL1        0.0695
@<TRIPOS>BOND
     1     1     2    1
     2     2     3   ar
     3     3     4   ar
     4     4    15    1
     5    15    16    1
     6    16    17    1
     7    18    16    1
     8    18    19    1
     9    19    20    1
    10    20    21    1
    11    21    22    1
    12    22    23   ar
    13    23    24   ar
    14    24    25   ar
    15    25    26   ar
    16    26    27   ar
    17     4     5   ar
    18     5     6   ar
    19     6     8    1
    20     8     9    1
    21     9    10    1
    22    10    11    1
    23    11    12    1
    24    11    13    1
    25    13    14    1
    26     6     7   ar
    27     7     2   ar
    28    27    18    1
    29    14     8    1
    30    27    22   ar
@<TRIPOS>MOLECULE
*****
 27 30 0 0 0
SMALL
GASTEIGER

@<TRIPOS>ATOM
      1 C         138.4892  144.7413  165.0497 C.3     1  UNL1        0.0737
      2 C         138.5792  143.8323  163.8600 C.ar    1  UNL1        0.1406
      3 N         138.1081  142.4120  163.9640 N.ar    1  UNL1       -0.2335
      4 C         138.1981  141.5029  162.7743 C.ar    1  UNL1        0.0793
      5 C         138.7592  142.0142  161.4804 C.ar    1  UNL1        0.0504
      6 C         139.2302  143.4345  161.3765 C.ar    1  UNL1        0.1343
      7 N         139.1402  144.3436  162.5663 N.ar    1  UNL1       -0.2160
      8 N         139.7913  143.9458  160.0827 N.pl3   1  UNL1       -0.2903
      9 C         140.7795  145.0743  160.0877 C.3     1  UNL1        0.1095
     10 C         141.3405  145.5855  158.7938 C.3     1  UNL1        0.0939
     11 N         140.9134  144.9684  157.4952 N.3     1  UNL1       -0.2686
     12 C         141.4744  145.4796  156.2015 C.3     1  UNL1        0.0897
     13 C         139.9252  143.8399  157.4902 C.3     1  UNL1        0.0939
     14 C         139.3641  143.3286  158.7840 C.3     1  UNL1        0.1095
     15 C         137.7271  140.0826  162.8783 C.3     1  UNL1        0.1191
     16 N         138.5530  139.0706  163.6157 N.3     1  UNL1       -0.2628
     17 C         138.9027  137.7672  162.9610 C.3     1  UNL1        0.0902
     18 C         139.0292  139.3622  165.0079 C.3     1  UNL1        0.0981
     19 C         138.1256  139.1090  166.1781 C.3     1  UNL1        0.0224
     20 C         138.6018  139.4006  167.5703 C.3     1  UNL1        0.0065
     21 C         139.9817  139.9452  167.7923 C.3     1  UNL1        0.0277
     22 C         140.8854  140.1984  166.6221 C.ar    1  UNL1       -0.0073
     23 C         142.2652  140.7430  166.8442 C.ar    1  UNL1       -0.0015
     24 C         143.1688  140.9961  165.6740 C.ar    1  UNL1        0.0203
     25 C         142.6926  140.7046  164.2818 C.ar    1  UNL1        0.0985
     26 N         141.3128  140.1600  164.0598 N.ar    1  UNL1       -0.2471
     27 C         140.4091  139.9068  165.2299 C.ar    1  UNL1        0.0695
@<TRIPOS>BOND
     1     1     2    1
     2     2     3   ar
     3     3     4   ar
     4     4    15    1
     5    15    16    1
     6    16    17    1
     7    18    16    1
     8    18    19    1
     9    19    20    1
    10    20    21    1
    11    21    22    1
    12    22    23   ar
    13    23    24   ar
    14    24    25   ar
    15    25    26   ar
    16    26    27   ar
    17     4     5   ar
    18     5     6   ar
    19     6     8    1
    20     8     9    1
    21     9    10    1
    22    10    11    1
    23    11    12    1
    24    11    13    1
    25    13    14    1
    26     6     7   ar
    27     7     2   ar
    28    27    18    1
    29    14     8    1
    30    27    22   ar
@<TRIPOS>MOLECULE
*****
 27 30 0 0 0
SMALL
GASTEIGER

@<TRIPOS>ATOM
      1 C         137.7281  138.4186  161.8337 C.3     1  UNL1        0.0737
      2 C         139.0490  138.7175  162.4784 C.ar    1  UNL1        0.1406
      3 N         140.2952  138.7712  161.6452 N.ar    1  UNL1       -0.2335
      4 C         141.6162  139.0701  162.2899 C.ar    1  UNL1        0.0793
      5 C         141.6910  139.3155  163.7679 C.ar    1  UNL1        0.0504
      6 C         140.4448  139.2618  164.6011 C.ar    1  UNL1        0.1343
      7 N         139.1238  138.9628  163.9563 N.ar    1  UNL1       -0.2160
      8 N         140.5196  139.5071  166.0790 N.pl3   1  UNL1       -0.2903
      9 C         139.2605  139.6883  166.8738 C.3     1  UNL1        0.1095
     10 C         139.3353  139.9336  168.3518 C.3     1  UNL1        0.0939
     11 N         140.6692  139.9977  169.0348 N.3     1  UNL1       -0.2686
     12 C         140.7440  140.2430  170.5127 C.3     1  UNL1        0.0897
     13 C         141.9283  139.8165  168.2400 C.3     1  UNL1        0.0939
     14 C         141.8535  139.5712  166.7621 C.3     1  UNL1        0.1095
     15 C         142.8623  139.1238  161.4568 C.3     1  UNL1        0.1191
     16 N         143.5065  140.4445  161.1551 N.3     1  UNL1       -0.2628
     17 C         143.6798  140.8869  159.7324 C.3     1  UNL1        0.0902
     18 C         143.9775  141.3226  162.2763 C.3     1  UNL1        0.0981
     19 C         145.1870  140.9358  163.0746 C.3     1  UNL1        0.0224
     20 C         145.6579  141.8140  164.1958 C.3     1  UNL1        0.0065
     21 C         144.9194  143.0790  164.5186 C.3     1  UNL1        0.0277
     22 C         143.7098  143.4659  163.7202 C.ar    1  UNL1       -0.0073
     23 C         142.9713  144.7309  164.0430 C.ar    1  UNL1       -0.0015
     24 C         141.7618  145.1178  163.2446 C.ar    1  UNL1        0.0203
     25 C         141.2908  144.2396  162.1234 C.ar    1  UNL1        0.0985
     26 N         142.0294  142.9745  161.8007 N.ar    1  UNL1       -0.2471
     27 C         143.2389  142.5877  162.5990 C.ar    1  UNL1        0.0695
@<TRIPOS>BOND
     1     1     2    1
     2     2     3   ar
     3     3     4   ar
     4     4    15    1
     5    15    16    1
     6    16    17    1
     7    18    16    1
     8    18    19    1
     9    19    20    1
    10    20    21    1
    11    21    22    1
    12    22    23   ar
    13    23    24   ar
    14    24    25   ar
    15    25    26   ar
    16    26    27   ar
    17     4     5   ar
    18     5     6   ar
    19     6     8    1
    20     8     9    1
    21     9    10    1
    22    10    11    1
    23    11    12    1
    24    11    13    1
    25    13    14    1
    26     6     7   ar
    27     7     2   ar
    28    27    18    1
    29    14     8    1
    30    27    22   ar
@<TRIPOS>MOLECULE
*****
 27 30 0 0 0
SMALL
GASTEIGER

@<TRIPOS>ATOM
      1 C         145.3796  142.0888  163.0645 C.3     1  UNL1        0.0737
      2 C         143.9887  142.3143  163.5785 C.ar    1  UNL1        0.1406
      3 N         142.8887  142.6846  162.6282 N.ar    1  UNL1       -0.2335
      4 C         141.4977  142.9101  163.1423 C.ar    1  UNL1        0.0793
      5 C         141.2066  142.7653  164.6067 C.ar    1  UNL1        0.0504
      6 C         142.3066  142.3951  165.5570 C.ar    1  UNL1        0.1343
      7 N         143.6976  142.1696  165.0428 N.ar    1  UNL1       -0.2160
      8 N         142.0155  142.2503  167.0213 N.pl3   1  UNL1       -0.2903
      9 C         140.5998  142.0987  167.4932 C.3     1  UNL1        0.1095
     10 C         140.3088  141.9539  168.9576 C.3     1  UNL1        0.0939
     11 N         141.4335  141.9608  169.9500 N.3     1  UNL1       -0.2686
     12 C         141.1425  141.8161  171.4144 C.3     1  UNL1        0.0897
     13 C         142.8492  142.1125  169.4781 C.3     1  UNL1        0.0939
     14 C         143.1403  142.2572  168.0138 C.3     1  UNL1        0.1095
     15 C         140.3978  143.2804  162.1920 C.3     1  UNL1        0.1191
     16 N         139.1303  142.4786  162.1628 N.3     1  UNL1       -0.2628
     17 C         137.8127  143.1491  162.4165 C.3     1  UNL1        0.0902
     18 C         139.1805  141.0064  161.8800 C.3     1  UNL1        0.0981
     19 C         139.3914  140.5189  160.4772 C.3     1  UNL1        0.0224
     20 C         139.4416  139.0466  160.1944 C.3     1  UNL1        0.0065
     21 C         139.2809  138.0619  161.3143 C.3     1  UNL1        0.0277
     22 C         139.0701  138.5493  162.7172 C.ar    1  UNL1       -0.0073
     23 C         138.9095  137.5645  163.8372 C.ar    1  UNL1       -0.0015
     24 C         138.6986  138.0520  165.2400 C.ar    1  UNL1        0.0203
     25 C         138.6484  139.5243  165.5228 C.ar    1  UNL1        0.0985
     26 N         138.8091  140.5090  164.4029 N.ar    1  UNL1       -0.2471
     27 C         139.0199  140.0216  163.0001 C.ar    1  UNL1        0.0695
@<TRIPOS>BOND
     1     1     2    1
     2     2     3   ar
     3     3     4   ar
     4     4    15    1
     5    15    16    1
     6    16    17    1
     7    18    16    1
     8    18    19    1
     9    19    20    1
    10    20    21    1
    11    21    22    1
    12    22    23   ar
    13    23    24   ar
    14    24    25   ar
    15    25    26   ar
    16    26    27   ar
    17     4     5   ar
    18     5     6   ar
    19     6     8    1
    20     8     9    1
    21     9    10    1
    22    10    11    1
    23    11    12    1
    24    11    13    1
    25    13    14    1
    26     6     7   ar
    27     7     2   ar
    28    27    18    1
    29    14     8    1
    30    27    22   ar
