@<TRIPOS>MOLECULE
*****
 36 40 0 0 0
SMALL
GASTEIGER

@<TRIPOS>ATOM
      1 C         143.8531  144.1975  163.6782 C.3     1  UNL1        0.0768
      2 N         142.4775  144.4374  163.1304 N.3     1  UNL1       -0.2724
      3 C         142.1006  144.4746  161.6790 C.3     1  UNL1        0.0721
      4 C         140.6274  144.7425  161.5894 C.3     1  UNL1        0.0187
      5 C         140.0939  144.8709  162.9854 C.3     1  UNL1        0.0178
      6 C         141.2373  144.6823  163.9378 C.3     1  UNL1        0.0721
      7 C         138.6674  145.1404  163.3627 C.3     1  UNL1        0.0077
      8 C         137.9483  144.2077  164.2916 C.3     1  UNL1        0.0459
      9 C         138.2337  142.7358  164.2458 C.ar    1  UNL1        0.0603
     10 C         139.0117  142.0879  165.3526 C.ar    1  UNL1        0.0145
     11 C         139.2972  140.6161  165.3069 C.ar    1  UNL1       -0.0003
     12 C         138.8047  139.7920  164.1543 C.ar    1  UNL1        0.0092
     13 C         138.0267  140.4399  163.0475 C.ar    1  UNL1        0.1240
     14 N         137.7412  141.9118  163.0933 N.ar    1  UNL1       -0.2356
     15 N         137.5341  139.6159  161.8949 N.pl3   1  UNL1       -0.3184
     16 C         137.8196  138.1441  161.8491 C.3     1  UNL1        0.0885
     17 C         138.5976  137.4962  162.9559 C.3     1  UNL1        0.0260
     18 C         139.0901  138.3202  164.1085 C.3     1  UNL1        0.0309
     19 H         137.0235  140.0412  161.1685 H       1  UNL1        0.1482
     20 C         144.2960  142.8031  164.0092 C.3     1  UNL1        0.0439
     21 C         143.7415  142.1068  165.2166 C.ar    1  UNL1       -0.0178
     22 C         143.2086  140.7097  165.0980 C.ar    1  UNL1       -0.0040
     23 C         142.6542  140.0134  166.3054 C.ar    1  UNL1        0.0028
     24 C         142.6325  140.7144  167.6314 C.ar    1  UNL1        0.0369
     25 C         143.1654  142.1115  167.7500 C.ar    1  UNL1        0.1382
     26 C         143.7198  142.8077  166.5426 C.ar    1  UNL1        0.0327
     27 O         143.1437  142.8124  169.0760 O.3     1  UNL1       -0.4765
     28 C         141.9249  142.7326  169.9467 C.3     1  UNL1        0.1978
     29 C         140.5978  143.3731  169.6665 C.3     1  UNL1        0.0782
     30 C         139.6718  143.0347  170.7970 C.3     1  UNL1        0.1461
     31 O         140.4267  142.1849  171.7759 O.3     1  UNL1       -0.3498
     32 C         141.8192  141.9983  171.2503 C.3     1  UNL1        0.1855
     33 C         145.2932  142.1050  163.1328 C.3     1  UNL1        0.0474
     34 O         144.8823  142.5184  160.6009 O.co2   1  UNL1       -0.5492
     35 C         144.8795  141.5960  161.7838 C.2     1  UNL1        0.0507
     36 O         144.4630  140.1646  161.6176 O.co2   1  UNL1       -0.5492
@<TRIPOS>UNITY_ATOM_ATTR
34 1
charge -1
@<TRIPOS>BOND
     1    34    35   ar
     2    35    36   ar
     3    35    33    1
     4    20    33    1
     5    20     1    1
     6     1     2    1
     7     2     3    1
     8     3     4    1
     9     4     5    1
    10     5     7    1
    11     7     8    1
    12     8     9    1
    13     9    10   ar
    14    10    11   ar
    15    11    12   ar
    16    12    13   ar
    17    13    14   ar
    18    13    15    1
    19    15    16    1
    20    16    17    1
    21    17    18    1
    22     5     6    1
    23    20    21    1
    24    21    22   ar
    25    22    23   ar
    26    23    24   ar
    27    24    25   ar
    28    25    27    1
    29    28    27    1
    30    28    29    1
    31    29    30    1
    32    30    31    1
    33    31    32    1
    34    25    26   ar
    35     6     2    1
    36    26    21   ar
    37    14     9   ar
    38    32    28    1
    39    18    12    1
    40    15    19    1
@<TRIPOS>MOLECULE
*****
 36 40 0 0 0
SMALL
GASTEIGER

@<TRIPOS>ATOM
      1 C         142.3888  141.7314  167.7955 C.3     1  UNL1        0.0768
      2 N         142.9103  140.6808  166.8605 N.3     1  UNL1       -0.2724
      3 C         143.0203  139.2141  167.1553 C.3     1  UNL1        0.0721
      4 C         143.5914  138.5393  165.9435 C.3     1  UNL1        0.0187
      5 C         143.8344  139.5889  164.8998 C.3     1  UNL1        0.0178
      6 C         143.4135  140.9124  165.4665 C.3     1  UNL1        0.0721
      7 C         144.3992  139.3558  163.5299 C.3     1  UNL1        0.0077
      8 C         143.7403  138.3773  162.6035 C.3     1  UNL1        0.0459
      9 C         142.2562  138.4275  162.3917 C.ar    1  UNL1        0.0603
     10 C         141.3562  137.5136  163.1694 C.ar    1  UNL1        0.0145
     11 C         139.8721  137.5638  162.9575 C.ar    1  UNL1       -0.0003
     12 C         139.2879  138.5279  161.9680 C.ar    1  UNL1        0.0092
     13 C         140.1879  139.4419  161.1903 C.ar    1  UNL1        0.1240
     14 N         141.6720  139.3916  161.4021 N.ar    1  UNL1       -0.2356
     15 N         139.6037  140.4060  160.2007 N.pl3   1  UNL1       -0.3184
     16 C         138.1197  140.4562  159.9889 C.3     1  UNL1        0.0885
     17 C         137.2197  139.5422  160.7666 C.3     1  UNL1        0.0260
     18 C         137.8038  138.5781  161.7561 C.3     1  UNL1        0.0309
     19 H         140.1944  141.0058  159.6903 H       1  UNL1        0.1482
     20 C         140.9118  141.8729  168.0159 C.3     1  UNL1        0.0439
     21 C         139.9478  141.1386  167.1317 C.ar    1  UNL1       -0.0178
     22 C         139.3649  139.8313  167.5804 C.ar    1  UNL1       -0.0040
     23 C         138.4010  139.0971  166.6962 C.ar    1  UNL1        0.0028
     24 C         138.0200  139.6702  165.3634 C.ar    1  UNL1        0.0369
     25 C         138.6028  140.9774  164.9147 C.ar    1  UNL1        0.1382
     26 C         139.5668  141.7116  165.7989 C.ar    1  UNL1        0.0327
     27 O         138.2218  141.5505  163.5819 O.3     1  UNL1       -0.4765
     28 C         138.8231  142.8456  163.1228 C.3     1  UNL1        0.1978
     29 C         138.1786  144.1972  163.2111 C.3     1  UNL1        0.0782
     30 C         139.1316  145.2037  162.6378 C.3     1  UNL1        0.1461
     31 O         140.3653  144.4741  162.1950 O.3     1  UNL1       -0.3498
     32 C         140.1745  143.0168  162.4948 C.3     1  UNL1        0.1855
     33 C         140.3988  142.7486  169.1204 C.3     1  UNL1        0.0474
     34 O         140.8984  142.2798  171.6266 O.co2   1  UNL1       -0.5492
     35 C         139.9995  142.1432  170.4335 C.2     1  UNL1        0.0507
     36 O         138.7014  141.4014  170.5535 O.co2   1  UNL1       -0.5492
@<TRIPOS>UNITY_ATOM_ATTR
34 1
charge -1
@<TRIPOS>BOND
     1    34    35   ar
     2    35    36   ar
     3    35    33    1
     4    20    33    1
     5    20     1    1
     6     1     2    1
     7     2     3    1
     8     3     4    1
     9     4     5    1
    10     5     7    1
    11     7     8    1
    12     8     9    1
    13     9    10   ar
    14    10    11   ar
    15    11    12   ar
    16    12    13   ar
    17    13    14   ar
    18    13    15    1
    19    15    16    1
    20    16    17    1
    21    17    18    1
    22     5     6    1
    23    20    21    1
    24    21    22   ar
    25    22    23   ar
    26    23    24   ar
    27    24    25   ar
    28    25    27    1
    29    28    27    1
    30    28    29    1
    31    29    30    1
    32    30    31    1
    33    31    32    1
    34    25    26   ar
    35     6     2    1
    36    26    21   ar
    37    14     9   ar
    38    32    28    1
    39    18    12    1
    40    15    19    1
@<TRIPOS>MOLECULE
*****
 36 40 0 0 0
SMALL
GASTEIGER

@<TRIPOS>ATOM
      1 C         138.1414  140.1157  165.0492 C.3     1  UNL1        0.0768
      2 N         138.1793  141.3216  164.1580 N.3     1  UNL1       -0.2724
      3 C         137.6158  141.4109  162.7707 C.3     1  UNL1        0.0721
      4 C         137.8756  142.7945  162.2529 C.3     1  UNL1        0.0187
      5 C         138.5998  143.5604  163.3202 C.3     1  UNL1        0.0178
      6 C         138.7875  142.6501  164.4976 C.3     1  UNL1        0.0721
      7 C         139.0561  144.9862  163.2264 C.3     1  UNL1        0.0077
      8 C         140.3876  145.3088  162.6158 C.3     1  UNL1        0.0459
      9 C         141.6089  144.5440  163.0324 C.ar    1  UNL1        0.0603
     10 C         142.6304  145.1885  163.9218 C.ar    1  UNL1        0.0145
     11 C         143.8516  144.4237  164.3384 C.ar    1  UNL1       -0.0003
     12 C         144.0515  143.0142  163.8654 C.ar    1  UNL1        0.0092
     13 C         143.0300  142.3697  162.9760 C.ar    1  UNL1        0.1240
     14 N         141.8087  143.1346  162.5594 N.ar    1  UNL1       -0.2356
     15 N         143.2298  140.9603  162.5030 N.pl3   1  UNL1       -0.3184
     16 C         144.4511  140.1955  162.9196 C.3     1  UNL1        0.0885
     17 C         145.4725  140.8401  163.8090 C.3     1  UNL1        0.0260
     18 C         145.2727  142.2494  164.2820 C.3     1  UNL1        0.0309
     19 H         142.5594  140.5373  161.9193 H       1  UNL1        0.1482
     20 C         139.1627  139.0294  164.8851 C.3     1  UNL1        0.0439
     21 C         140.5228  139.1796  165.4998 C.ar    1  UNL1       -0.0178
     22 C         141.6139  138.2106  165.1526 C.ar    1  UNL1       -0.0040
     23 C         142.9739  138.3609  165.7673 C.ar    1  UNL1        0.0028
     24 C         143.2428  139.4801  166.7291 C.ar    1  UNL1        0.0369
     25 C         142.1517  140.4490  167.0763 C.ar    1  UNL1        0.1382
     26 C         140.7917  140.2988  166.4616 C.ar    1  UNL1        0.0327
     27 O         142.4205  141.5682  168.0382 O.3     1  UNL1       -0.4765
     28 C         141.4651  141.8362  169.1629 C.3     1  UNL1        0.1978
     29 C         140.6472  143.0800  169.3475 C.3     1  UNL1        0.0782
     30 C         139.8363  142.9201  170.5993 C.3     1  UNL1        0.1461
     31 O         140.1531  141.5774  171.1883 O.3     1  UNL1       -0.3498
     32 C         141.1597  140.9076  170.3006 C.3     1  UNL1        0.1855
     33 C         138.8240  137.7930  164.1064 C.3     1  UNL1        0.0474
     34 O         137.6535  138.0912  161.8061 O.co2   1  UNL1       -0.5492
     35 C         138.8895  137.8089  162.6079 C.2     1  UNL1        0.0507
     36 O         140.1908  137.5426  161.9111 O.co2   1  UNL1       -0.5492
@<TRIPOS>UNITY_ATOM_ATTR
34 1
charge -1
@<TRIPOS>BOND
     1    34    35   ar
     2    35    36   ar
     3    35    33    1
     4    20    33    1
     5    20     1    1
     6     1     2    1
     7     2     3    1
     8     3     4    1
     9     4     5    1
    10     5     7    1
    11     7     8    1
    12     8     9    1
    13     9    10   ar
    14    10    11   ar
    15    11    12   ar
    16    12    13   ar
    17    13    14   ar
    18    13    15    1
    19    15    16    1
    20    16    17    1
    21    17    18    1
    22     5     6    1
    23    20    21    1
    24    21    22   ar
    25    22    23   ar
    26    23    24   ar
    27    24    25   ar
    28    25    27    1
    29    28    27    1
    30    28    29    1
    31    29    30    1
    32    30    31    1
    33    31    32    1
    34    25    26   ar
    35     6     2    1
    36    26    21   ar
    37    14     9   ar
    38    32    28    1
    39    18    12    1
    40    15    19    1
@<TRIPOS>MOLECULE
*****
 36 40 0 0 0
SMALL
GASTEIGER

@<TRIPOS>ATOM
      1 C         142.8484  141.2760  165.7091 C.3     1  UNL1        0.0768
      2 N         142.0521  142.4370  165.1916 N.3     1  UNL1       -0.2724
      3 C         142.4719  143.3783  164.1017 C.3     1  UNL1        0.0721
      4 C         141.3754  144.3837  163.9096 C.3     1  UNL1        0.0187
      5 C         140.2779  144.0638  164.8807 C.3     1  UNL1        0.0178
      6 C         140.6961  142.8607  165.6730 C.3     1  UNL1        0.0721
      7 C         138.9885  144.8150  165.0328 C.3     1  UNL1        0.0077
      8 C         137.7273  144.2697  164.4313 C.3     1  UNL1        0.0459
      9 C         137.7987  143.2093  163.3726 C.ar    1  UNL1        0.0603
     10 C         137.5713  141.7715  163.7347 C.ar    1  UNL1        0.0145
     11 C         137.6427  140.7112  162.6762 C.ar    1  UNL1       -0.0003
     12 C         137.9415  141.0886  161.2554 C.ar    1  UNL1        0.0092
     13 C         138.1689  142.5264  160.8934 C.ar    1  UNL1        0.1240
     14 N         138.0975  143.5868  161.9520 N.ar    1  UNL1       -0.2356
     15 N         138.4677  142.9039  159.4727 N.pl3   1  UNL1       -0.3184
     16 C         138.5390  141.8435  158.4142 C.3     1  UNL1        0.0885
     17 C         138.3117  140.4058  158.7763 C.3     1  UNL1        0.0260
     18 C         138.0129  140.0283  160.1969 C.3     1  UNL1        0.0309
     19 H         138.6169  143.8475  159.2351 H       1  UNL1        0.1482
     20 C         142.3689  139.8740  165.4755 C.3     1  UNL1        0.0439
     21 C         140.9699  139.4870  165.8540 C.ar    1  UNL1       -0.0178
     22 C         140.0945  138.7767  164.8645 C.ar    1  UNL1       -0.0040
     23 C         138.6956  138.3897  165.2430 C.ar    1  UNL1        0.0028
     24 C         138.1720  138.7131  166.6110 C.ar    1  UNL1        0.0369
     25 C         139.0474  139.4234  167.6005 C.ar    1  UNL1        0.1382
     26 C         140.4463  139.8104  167.2220 C.ar    1  UNL1        0.0327
     27 O         138.5239  139.7468  168.9685 O.3     1  UNL1       -0.4765
     28 C         139.3852  140.4924  169.9442 C.3     1  UNL1        0.1978
     29 C         139.6275  141.9727  169.9545 C.3     1  UNL1        0.0782
     30 C         140.5476  142.2839  171.0976 C.3     1  UNL1        0.1461
     31 O         140.8740  140.9959  171.7937 O.3     1  UNL1       -0.3498
     32 C         140.1556  139.8887  171.0809 C.3     1  UNL1        0.1855
     33 C         143.2883  138.8591  164.8635 C.3     1  UNL1        0.0474
     34 O         142.6711  137.8947  162.5312 O.co2   1  UNL1       -0.5492
     35 C         143.4870  138.8270  163.3771 C.2     1  UNL1        0.0507
     36 O         144.5016  139.7271  162.7364 O.co2   1  UNL1       -0.5492
@<TRIPOS>UNITY_ATOM_ATTR
34 1
charge -1
@<TRIPOS>BOND
     1    34    35   ar
     2    35    36   ar
     3    35    33    1
     4    20    33    1
     5    20     1    1
     6     1     2    1
     7     2     3    1
     8     3     4    1
     9     4     5    1
    10     5     7    1
    11     7     8    1
    12     8     9    1
    13     9    10   ar
    14    10    11   ar
    15    11    12   ar
    16    12    13   ar
    17    13    14   ar
    18    13    15    1
    19    15    16    1
    20    16    17    1
    21    17    18    1
    22     5     6    1
    23    20    21    1
    24    21    22   ar
    25    22    23   ar
    26    23    24   ar
    27    24    25   ar
    28    25    27    1
    29    28    27    1
    30    28    29    1
    31    29    30    1
    32    30    31    1
    33    31    32    1
    34    25    26   ar
    35     6     2    1
    36    26    21   ar
    37    14     9   ar
    38    32    28    1
    39    18    12    1
    40    15    19    1
@<TRIPOS>MOLECULE
*****
 36 40 0 0 0
SMALL
GASTEIGER

@<TRIPOS>ATOM
      1 C         142.5068  141.2543  166.7759 C.3     1  UNL1        0.0768
      2 N         141.7943  142.3038  165.9755 N.3     1  UNL1       -0.2724
      3 C         142.2818  142.9207  164.6980 C.3     1  UNL1        0.0721
      4 C         141.2579  143.9189  164.2450 C.3     1  UNL1        0.0187
      5 C         140.1375  143.9189  165.2423 C.3     1  UNL1        0.0178
      6 C         140.4690  142.9207  166.3118 C.3     1  UNL1        0.0721
      7 C         138.9026  144.7680  165.1810 C.3     1  UNL1        0.0077
      8 C         137.6532  144.2299  164.5489 C.3     1  UNL1        0.0459
      9 C         137.7452  143.1849  163.4767 C.ar    1  UNL1        0.0603
     10 C         137.5362  141.7394  163.8184 C.ar    1  UNL1        0.0145
     11 C         137.6281  140.6944  162.7463 C.ar    1  UNL1       -0.0003
     12 C         137.9291  141.0949  161.3324 C.ar    1  UNL1        0.0092
     13 C         138.1382  142.5404  160.9907 C.ar    1  UNL1        0.1240
     14 N         138.0462  143.5854  162.0629 N.ar    1  UNL1       -0.2356
     15 N         138.4392  142.9409  159.5769 N.pl3   1  UNL1       -0.3184
     16 C         138.5312  141.8959  158.5048 C.3     1  UNL1        0.0885
     17 C         138.3221  140.4504  158.8465 C.3     1  UNL1        0.0260
     18 C         138.0211  140.0499  160.2603 C.3     1  UNL1        0.0309
     19 H         138.5764  143.8896  159.3526 H       1  UNL1        0.1482
     20 C         141.7588  140.0520  167.2709 C.3     1  UNL1        0.0439
     21 C         140.8532  139.2977  166.3430 C.ar    1  UNL1       -0.0178
     22 C         139.3708  139.3037  166.5723 C.ar    1  UNL1       -0.0040
     23 C         138.4653  138.5494  165.6444 C.ar    1  UNL1        0.0028
     24 C         139.0421  137.7891  164.4871 C.ar    1  UNL1        0.0369
     25 C         140.5244  137.7831  164.2578 C.ar    1  UNL1        0.1382
     26 C         141.4300  138.5374  165.1857 C.ar    1  UNL1        0.0327
     27 O         141.1012  137.0228  163.1005 O.3     1  UNL1       -0.4765
     28 C         141.8549  137.7497  162.0265 C.3     1  UNL1        0.1978
     29 C         143.3338  137.9994  162.0021 C.3     1  UNL1        0.0782
     30 C         143.6551  138.7586  160.7489 C.3     1  UNL1        0.1461
     31 O         142.3747  138.9781  159.9988 O.3     1  UNL1       -0.3498
     32 C         141.2622  138.3545  160.7885 C.3     1  UNL1        0.1855
     33 C         141.9164  139.6040  168.6937 C.3     1  UNL1        0.0474
     34 O         141.5925  141.5421  170.3934 O.co2   1  UNL1       -0.5492
     35 C         141.1153  140.2593  169.7795 C.2     1  UNL1        0.0507
     36 O         139.8371  139.6319  170.2513 O.co2   1  UNL1       -0.5492
@<TRIPOS>UNITY_ATOM_ATTR
34 1
charge -1
@<TRIPOS>BOND
     1    34    35   ar
     2    35    36   ar
     3    35    33    1
     4    20    33    1
     5    20     1    1
     6     1     2    1
     7     2     3    1
     8     3     4    1
     9     4     5    1
    10     5     7    1
    11     7     8    1
    12     8     9    1
    13     9    10   ar
    14    10    11   ar
    15    11    12   ar
    16    12    13   ar
    17    13    14   ar
    18    13    15    1
    19    15    16    1
    20    16    17    1
    21    17    18    1
    22     5     6    1
    23    20    21    1
    24    21    22   ar
    25    22    23   ar
    26    23    24   ar
    27    24    25   ar
    28    25    27    1
    29    28    27    1
    30    28    29    1
    31    29    30    1
    32    30    31    1
    33    31    32    1
    34    25    26   ar
    35     6     2    1
    36    26    21   ar
    37    14     9   ar
    38    32    28    1
    39    18    12    1
    40    15    19    1
@<TRIPOS>MOLECULE
*****
 36 40 0 0 0
SMALL
GASTEIGER

@<TRIPOS>ATOM
      1 C         141.6018  139.9482  167.6942 C.3     1  UNL1        0.0768
      2 N         142.3737  139.7143  166.4295 N.3     1  UNL1       -0.2724
      3 C         142.1388  138.6070  165.4452 C.3     1  UNL1        0.0721
      4 C         143.1359  138.7549  164.3344 C.3     1  UNL1        0.0187
      5 C         143.9870  139.9536  164.6321 C.3     1  UNL1        0.0178
      6 C         143.5160  140.5465  165.9270 C.3     1  UNL1        0.0721
      7 C         145.1118  140.4689  163.7840 C.3     1  UNL1        0.0077
      8 C         145.3637  141.9445  163.6882 C.3     1  UNL1        0.0459
      9 C         144.2321  142.8803  163.3818 C.ar    1  UNL1        0.0603
     10 C         144.0405  144.1200  164.2042 C.ar    1  UNL1        0.0145
     11 C         142.9089  145.0558  163.8979 C.ar    1  UNL1       -0.0003
     12 C         141.9689  144.7518  162.7691 C.ar    1  UNL1        0.0092
     13 C         142.1605  143.5121  161.9467 C.ar    1  UNL1        0.1240
     14 N         143.2922  142.5763  162.2531 N.ar    1  UNL1       -0.2356
     15 N         141.2206  143.2081  160.8180 N.pl3   1  UNL1       -0.3184
     16 C         140.0891  144.1439  160.5116 C.3     1  UNL1        0.0885
     17 C         139.8975  145.3836  161.3340 C.3     1  UNL1        0.0260
     18 C         140.8374  145.6876  162.4627 C.3     1  UNL1        0.0309
     19 H         141.3464  142.3944  160.2782 H       1  UNL1        0.1482
     20 C         140.1717  140.3958  167.6281 C.3     1  UNL1        0.0439
     21 C         139.7226  141.3119  166.5284 C.ar    1  UNL1       -0.0178
     22 C         140.2152  142.7280  166.4838 C.ar    1  UNL1       -0.0040
     23 C         139.7661  143.6439  165.3842 C.ar    1  UNL1        0.0028
     24 C         138.8243  143.1439  164.3292 C.ar    1  UNL1        0.0369
     25 C         138.3316  141.7278  164.3738 C.ar    1  UNL1        0.1382
     26 C         138.7808  140.8118  165.4735 C.ar    1  UNL1        0.0327
     27 O         137.3898  141.2277  163.3188 O.3     1  UNL1       -0.4765
     28 C         137.8797  140.2798  162.2646 C.3     1  UNL1        0.1978
     29 C         138.2378  138.8382  162.4730 C.3     1  UNL1        0.0782
     30 C         138.6769  138.2743  161.1541 C.3     1  UNL1        0.1461
     31 O         138.5900  139.3676  160.1306 O.3     1  UNL1       -0.3498
     32 C         138.0973  140.6070  160.8170 C.3     1  UNL1        0.1855
     33 C         139.1907  139.9274  168.6616 C.3     1  UNL1        0.0474
     34 O         139.4496  139.4338  171.1993 O.co2   1  UNL1       -0.5492
     35 C         139.3001  140.4162  170.0756 C.2     1  UNL1        0.0507
     36 O         139.2600  141.8873  170.3657 O.co2   1  UNL1       -0.5492
@<TRIPOS>UNITY_ATOM_ATTR
34 1
charge -1
@<TRIPOS>BOND
     1    34    35   ar
     2    35    36   ar
     3    35    33    1
     4    20    33    1
     5    20     1    1
     6     1     2    1
     7     2     3    1
     8     3     4    1
     9     4     5    1
    10     5     7    1
    11     7     8    1
    12     8     9    1
    13     9    10   ar
    14    10    11   ar
    15    11    12   ar
    16    12    13   ar
    17    13    14   ar
    18    13    15    1
    19    15    16    1
    20    16    17    1
    21    17    18    1
    22     5     6    1
    23    20    21    1
    24    21    22   ar
    25    22    23   ar
    26    23    24   ar
    27    24    25   ar
    28    25    27    1
    29    28    27    1
    30    28    29    1
    31    29    30    1
    32    30    31    1
    33    31    32    1
    34    25    26   ar
    35     6     2    1
    36    26    21   ar
    37    14     9   ar
    38    32    28    1
    39    18    12    1
    40    15    19    1
@<TRIPOS>MOLECULE
*****
 36 40 0 0 0
SMALL
GASTEIGER

@<TRIPOS>ATOM
      1 C         141.0940  142.0125  167.9240 C.3     1  UNL1        0.0768
      2 N         140.9180  142.7534  166.6316 N.3     1  UNL1       -0.2724
      3 C         141.9218  142.8382  165.5201 C.3     1  UNL1        0.0721
      4 C         141.3315  143.6767  164.4254 C.3     1  UNL1        0.0187
      5 C         139.9629  144.1101  164.8603 C.3     1  UNL1        0.0178
      6 C         139.7074  143.5395  166.2238 C.3     1  UNL1        0.0721
      7 C         139.0161  144.9642  164.0704 C.3     1  UNL1        0.0077
      8 C         137.9862  144.3235  163.1879 C.3     1  UNL1        0.0459
      9 C         138.1191  142.8788  162.8069 C.ar    1  UNL1        0.0603
     10 C         137.5307  141.8144  163.6848 C.ar    1  UNL1        0.0145
     11 C         137.6636  140.3697  163.3038 C.ar    1  UNL1       -0.0003
     12 C         138.3850  139.9894  162.0448 C.ar    1  UNL1        0.0092
     13 C         138.9735  141.0538  161.1669 C.ar    1  UNL1        0.1240
     14 N         138.8405  142.4985  161.5480 N.ar    1  UNL1       -0.2356
     15 N         139.6949  140.6735  159.9080 N.pl3   1  UNL1       -0.3184
     16 C         139.8278  139.2288  159.5270 C.3     1  UNL1        0.0885
     17 C         139.2393  138.1644  160.4049 C.3     1  UNL1        0.0260
     18 C         138.5179  138.5447  161.6638 C.3     1  UNL1        0.0309
     19 H         140.0811  141.3721  159.3318 H       1  UNL1        0.1482
     20 C         140.1228  140.9364  168.3099 C.3     1  UNL1        0.0439
     21 C         139.7205  139.8948  167.3082 C.ar    1  UNL1       -0.0178
     22 C         138.3703  139.2478  167.4001 C.ar    1  UNL1       -0.0040
     23 C         137.9681  138.2063  166.3985 C.ar    1  UNL1        0.0028
     24 C         138.9159  137.8117  165.3049 C.ar    1  UNL1        0.0369
     25 C         140.2661  138.4587  165.2130 C.ar    1  UNL1        0.1382
     26 C         140.6684  139.5003  166.2146 C.ar    1  UNL1        0.0327
     27 O         141.2139  138.0641  164.1194 O.3     1  UNL1       -0.4765
     28 C         142.2856  139.0155  163.6763 C.3     1  UNL1        0.1978
     29 C         142.1045  140.1734  162.7401 C.3     1  UNL1        0.0782
     30 C         143.4335  140.8497  162.5768 C.3     1  UNL1        0.1461
     31 O         144.4359  140.1097  163.4121 O.3     1  UNL1       -0.3498
     32 C         143.7264  138.9761  164.0916 C.3     1  UNL1        0.1855
     33 C         139.5540  140.9020  169.6974 C.3     1  UNL1        0.0474
     34 O         141.3935  141.2092  171.5064 O.co2   1  UNL1       -0.5492
     35 C         140.1816  141.7215  170.7858 C.2     1  UNL1        0.0507
     36 O         139.5973  143.0531  171.1538 O.co2   1  UNL1       -0.5492
@<TRIPOS>UNITY_ATOM_ATTR
34 1
charge -1
@<TRIPOS>BOND
     1    34    35   ar
     2    35    36   ar
     3    35    33    1
     4    20    33    1
     5    20     1    1
     6     1     2    1
     7     2     3    1
     8     3     4    1
     9     4     5    1
    10     5     7    1
    11     7     8    1
    12     8     9    1
    13     9    10   ar
    14    10    11   ar
    15    11    12   ar
    16    12    13   ar
    17    13    14   ar
    18    13    15    1
    19    15    16    1
    20    16    17    1
    21    17    18    1
    22     5     6    1
    23    20    21    1
    24    21    22   ar
    25    22    23   ar
    26    23    24   ar
    27    24    25   ar
    28    25    27    1
    29    28    27    1
    30    28    29    1
    31    29    30    1
    32    30    31    1
    33    31    32    1
    34    25    26   ar
    35     6     2    1
    36    26    21   ar
    37    14     9   ar
    38    32    28    1
    39    18    12    1
    40    15    19    1
@<TRIPOS>MOLECULE
*****
 36 40 0 0 0
SMALL
GASTEIGER

@<TRIPOS>ATOM
      1 C         142.8426  141.2234  166.9520 C.3     1  UNL1        0.0768
      2 N         141.4792  140.6258  167.1365 N.3     1  UNL1       -0.2724
      3 C         140.6537  140.6823  168.3878 C.3     1  UNL1        0.0721
      4 C         139.3662  139.9583  168.1268 C.3     1  UNL1        0.0187
      5 C         139.3959  139.4543  166.7143 C.3     1  UNL1        0.0178
      6 C         140.7018  139.8669  166.1023 C.3     1  UNL1        0.0721
      7 C         138.3103  138.6747  166.0335 C.3     1  UNL1        0.0077
      8 C         138.6628  137.5320  165.1278 C.3     1  UNL1        0.0459
      9 C         139.1925  137.8023  163.7507 C.ar    1  UNL1        0.0603
     10 C         138.3062  138.4298  162.7160 C.ar    1  UNL1        0.0145
     11 C         138.8359  138.7001  161.3389 C.ar    1  UNL1       -0.0003
     12 C         140.2520  138.3428  160.9966 C.ar    1  UNL1        0.0092
     13 C         141.1383  137.7153  162.0313 C.ar    1  UNL1        0.1240
     14 N         140.6086  137.4451  163.4084 N.ar    1  UNL1       -0.2356
     15 N         142.5544  137.3581  161.6890 N.pl3   1  UNL1       -0.3184
     16 C         143.0841  137.6283  160.3119 C.3     1  UNL1        0.0885
     17 C         142.1978  138.2558  159.2772 C.3     1  UNL1        0.0260
     18 C         140.7818  138.6131  159.6195 C.3     1  UNL1        0.0309
     19 H         143.1361  136.9462  162.3681 H       1  UNL1        0.1482
     20 C         143.3313  141.5659  165.5758 C.3     1  UNL1        0.0439
     21 C         142.9652  142.8819  164.9558 C.ar    1  UNL1       -0.0178
     22 C         144.0237  143.9163  164.7116 C.ar    1  UNL1       -0.0040
     23 C         143.6575  145.2322  164.0917 C.ar    1  UNL1        0.0028
     24 C         142.2328  145.5137  163.7159 C.ar    1  UNL1        0.0369
     25 C         141.1743  144.4793  163.9602 C.ar    1  UNL1        0.1382
     26 C         141.5405  143.1634  164.5801 C.ar    1  UNL1        0.0327
     27 O         139.7497  144.7609  163.5845 O.3     1  UNL1       -0.4765
     28 C         138.9655  143.7476  162.8046 C.3     1  UNL1        0.1978
     29 C         139.1977  143.3648  161.3729 C.3     1  UNL1        0.0782
     30 C         138.1872  142.3198  161.0028 C.3     1  UNL1        0.1461
     31 O         137.3305  142.0568  162.2058 O.3     1  UNL1       -0.3498
     32 C         137.8116  142.9392  163.3193 C.3     1  UNL1        0.1855
     33 C         144.1861  140.5926  164.8196 C.3     1  UNL1        0.0474
     34 O         143.3792  140.4002  162.3575 O.co2   1  UNL1       -0.5492
     35 C         144.4309  140.7911  163.3531 C.2     1  UNL1        0.0507
     36 O         145.7274  141.3805  162.8822 O.co2   1  UNL1       -0.5492
@<TRIPOS>UNITY_ATOM_ATTR
34 1
charge -1
@<TRIPOS>BOND
     1    34    35   ar
     2    35    36   ar
     3    35    33    1
     4    20    33    1
     5    20     1    1
     6     1     2    1
     7     2     3    1
     8     3     4    1
     9     4     5    1
    10     5     7    1
    11     7     8    1
    12     8     9    1
    13     9    10   ar
    14    10    11   ar
    15    11    12   ar
    16    12    13   ar
    17    13    14   ar
    18    13    15    1
    19    15    16    1
    20    16    17    1
    21    17    18    1
    22     5     6    1
    23    20    21    1
    24    21    22   ar
    25    22    23   ar
    26    23    24   ar
    27    24    25   ar
    28    25    27    1
    29    28    27    1
    30    28    29    1
    31    29    30    1
    32    30    31    1
    33    31    32    1
    34    25    26   ar
    35     6     2    1
    36    26    21   ar
    37    14     9   ar
    38    32    28    1
    39    18    12    1
    40    15    19    1
@<TRIPOS>MOLECULE
*****
 36 40 0 0 0
SMALL
GASTEIGER

@<TRIPOS>ATOM
      1 C         143.1366  141.0673  164.9589 C.3     1  UNL1        0.0768
      2 N         141.9938  141.8934  165.4704 N.3     1  UNL1       -0.2724
      3 C         141.4037  141.8252  166.8479 C.3     1  UNL1        0.0721
      4 C         140.2857  142.8223  166.9231 C.3     1  UNL1        0.0187
      5 C         140.1847  143.5068  165.5922 C.3     1  UNL1        0.0178
      6 C         141.2404  142.9327  164.6944 C.3     1  UNL1        0.0721
      7 C         139.2008  144.5774  165.2239 C.3     1  UNL1        0.0077
      8 C         137.9025  144.2096  164.5688 C.3     1  UNL1        0.0459
      9 C         137.8760  143.1702  163.4876 C.ar    1  UNL1        0.0603
     10 C         137.5742  141.7409  163.8285 C.ar    1  UNL1        0.0145
     11 C         137.5477  140.7015  162.7473 C.ar    1  UNL1       -0.0003
     12 C         137.8228  141.0914  161.3252 C.ar    1  UNL1        0.0092
     13 C         138.1245  142.5206  160.9843 C.ar    1  UNL1        0.1240
     14 N         138.1511  143.5600  162.0655 N.ar    1  UNL1       -0.2356
     15 N         138.3997  142.9105  159.5623 N.pl3   1  UNL1       -0.3184
     16 C         138.3731  141.8711  158.4811 C.3     1  UNL1        0.0885
     17 C         138.0714  140.4418  158.8220 C.3     1  UNL1        0.0260
     18 C         137.7962  140.0520  160.2441 C.3     1  UNL1        0.0309
     19 H         138.5977  143.8485  159.3385 H       1  UNL1        0.1482
     20 C         143.0105  139.5742  164.8891 C.3     1  UNL1        0.0439
     21 C         141.8081  138.9524  164.2428 C.ar    1  UNL1       -0.0178
     22 C         140.6848  138.4339  165.0908 C.ar    1  UNL1       -0.0040
     23 C         139.4824  137.8121  164.4445 C.ar    1  UNL1        0.0028
     24 C         139.4034  137.7089  162.9501 C.ar    1  UNL1        0.0369
     25 C         140.5267  138.2275  162.1021 C.ar    1  UNL1        0.1382
     26 C         141.7291  138.8493  162.7484 C.ar    1  UNL1        0.0327
     27 O         140.4477  138.1243  160.6077 O.3     1  UNL1       -0.4765
     28 C         141.5598  138.6651  159.7588 C.3     1  UNL1        0.1978
     29 C         141.6545  140.0592  159.2133 C.3     1  UNL1        0.0782
     30 C         142.9257  140.1626  158.4236 C.3     1  UNL1        0.1461
     31 O         143.6165  138.8323  158.4811 O.3     1  UNL1       -0.3498
     32 C         142.7723  137.9069  159.3063 C.3     1  UNL1        0.1855
     33 C         144.0869  138.7030  165.4656 C.3     1  UNL1        0.0474
     34 O         144.6609  136.8919  167.2378 O.co2   1  UNL1       -0.5492
     35 C         143.9423  138.1511  166.8529 C.2     1  UNL1        0.0507
     36 O         143.0792  138.8584  167.8553 O.co2   1  UNL1       -0.5492
@<TRIPOS>UNITY_ATOM_ATTR
34 1
charge -1
@<TRIPOS>BOND
     1    34    35   ar
     2    35    36   ar
     3    35    33    1
     4    20    33    1
     5    20     1    1
     6     1     2    1
     7     2     3    1
     8     3     4    1
     9     4     5    1
    10     5     7    1
    11     7     8    1
    12     8     9    1
    13     9    10   ar
    14    10    11   ar
    15    11    12   ar
    16    12    13   ar
    17    13    14   ar
    18    13    15    1
    19    15    16    1
    20    16    17    1
    21    17    18    1
    22     5     6    1
    23    20    21    1
    24    21    22   ar
    25    22    23   ar
    26    23    24   ar
    27    24    25   ar
    28    25    27    1
    29    28    27    1
    30    28    29    1
    31    29    30    1
    32    30    31    1
    33    31    32    1
    34    25    26   ar
    35     6     2    1
    36    26    21   ar
    37    14     9   ar
    38    32    28    1
    39    18    12    1
    40    15    19    1
