@<TRIPOS>MOLECULE
*****
 34 37 0 0 0
SMALL
GASTEIGER

@<TRIPOS>ATOM
      1 C         138.9928  140.1624  169.0664 C.ar    1  UNL1        0.3086
      2 N         137.8443  139.1986  169.1099 N.ar    1  UNL1       -0.0923
      3 N         137.6475  138.6491  167.7281 N.ar    1  UNL1       -0.1058
      4 C         138.6745  139.2734  166.8305 C.ar    1  UNL1        0.2512
      5 O         139.5059  140.2087  167.6576 O.2     1  UNL1       -0.4048
      6 C         138.8408  139.0089  165.3634 C.ar    1  UNL1        0.0553
      7 C         138.3233  139.9962  164.3599 C.ar    1  UNL1        0.0060
      8 C         138.4897  139.7317  162.8928 C.ar    1  UNL1        0.0148
      9 C         139.1736  138.4798  162.4293 C.ar    1  UNL1        0.0505
     10 C         139.6911  137.4923  163.4329 C.ar    1  UNL1        0.0148
     11 C         139.5248  137.7569  164.9000 C.ar    1  UNL1        0.0060
     12 N         139.3400  138.2152  160.9622 N.am    1  UNL1       -0.2803
     13 C         140.5135  138.7891  160.2250 C.2     1  UNL1        0.2517
     14 O         141.5207  139.6275  160.9549 O.2     1  UNL1       -0.2697
     15 H         138.6790  137.6649  160.4832 H       1  UNL1        0.1552
     16 C         140.6799  138.5245  158.7580 C.ar    1  UNL1        0.0811
     17 C         139.5657  138.8467  157.8067 C.ar    1  UNL1        0.0068
     18 C         139.7320  138.5821  156.3397 C.ar    1  UNL1        0.0003
     19 C         141.0125  137.9954  155.8238 C.ar    1  UNL1        0.0023
     20 C         142.1267  137.6732  156.7751 C.ar    1  UNL1        0.0298
     21 C         141.9604  137.9377  158.2421 C.ar    1  UNL1        0.1445
     22 F         143.0745  137.6156  159.1933 F       1  UNL1       -0.2040
     23 N         139.5333  140.9430  170.2277 N.pl3   1  UNL1       -0.2871
     24 H         139.5157  140.5552  171.1324 H       1  UNL1        0.1512
     25 C         140.1007  142.3145  170.0105 C.3     1  UNL1        0.0925
     26 C         141.3836  142.7100  170.6796 C.3     1  UNL1        0.0386
     27 C         142.6836  142.1235  170.2150 C.3     1  UNL1        0.0739
     28 C         142.9568  139.2019  164.9815 C.3     1  UNL1        0.0897
     29 N         142.8885  139.9323  166.2899 N.3     1  UNL1       -0.2691
     30 C         142.9069  141.4320  166.3135 C.3     1  UNL1        0.0897
     31 C         142.8386  142.1624  167.6219 C.3     1  UNL1        0.0897
     32 N         142.7519  141.3931  168.9066 N.3     1  UNL1       -0.2703
     33 C         142.7336  139.8934  168.8830 C.3     1  UNL1        0.0897
     34 C         142.8018  139.1630  167.5746 C.3     1  UNL1        0.0897
@<TRIPOS>BOND
     1    28    29    1
     2    29    30    1
     3    30    31    1
     4    31    32    1
     5    32    27    1
     6    27    26    1
     7    26    25    1
     8    25    23    1
     9    23     1    1
    10     1     2   ar
    11     2     3   ar
    12     3     4   ar
    13     4     6    1
    14     6     7   ar
    15     7     8   ar
    16     8     9   ar
    17     9    12    1
    18    12    13   am
    19    13    14    2
    20    13    16    1
    21    16    17   ar
    22    17    18   ar
    23    18    19   ar
    24    19    20   ar
    25    20    21   ar
    26    21    22    1
    27     9    10   ar
    28    10    11   ar
    29     4     5   ar
    30    32    33    1
    31    33    34    1
    32    34    29    1
    33     5     1   ar
    34    11     6   ar
    35    21    16   ar
    36    23    24    1
    37    12    15    1
@<TRIPOS>MOLECULE
*****
 34 37 0 0 0
SMALL
GASTEIGER

@<TRIPOS>ATOM
      1 C         139.3012  140.3522  168.9394 C.ar    1  UNL1        0.3086
      2 N         138.2185  139.3302  169.1218 N.ar    1  UNL1       -0.0923
      3 N         137.8016  138.8491  167.7635 N.ar    1  UNL1       -0.1058
      4 C         138.6266  139.5738  166.7417 C.ar    1  UNL1        0.2512
      5 O         139.5534  140.5027  167.4685 O.2     1  UNL1       -0.4048
      6 C         138.5401  139.4001  165.2543 C.ar    1  UNL1        0.0553
      7 C         138.9160  138.0895  164.6292 C.ar    1  UNL1        0.0060
      8 C         138.8295  137.9158  163.1418 C.ar    1  UNL1        0.0148
      9 C         138.3670  139.0527  162.2796 C.ar    1  UNL1        0.0505
     10 C         137.9911  140.3634  162.9048 C.ar    1  UNL1        0.0148
     11 C         138.0776  140.5371  164.3922 C.ar    1  UNL1        0.0060
     12 N         138.2805  138.8791  160.7922 N.am    1  UNL1       -0.2803
     13 C         139.4103  139.3346  159.9169 C.2     1  UNL1        0.2517
     14 O         140.6266  139.9638  160.5290 O.2     1  UNL1       -0.2697
     15 H         137.4822  138.4661  160.3904 H       1  UNL1        0.1552
     16 C         139.3237  139.1610  158.4296 C.ar    1  UNL1        0.0811
     17 C         139.9088  137.9412  157.7816 C.ar    1  UNL1        0.0068
     18 C         139.8223  137.7674  156.2942 C.ar    1  UNL1        0.0003
     19 C         139.1507  138.8135  155.4548 C.ar    1  UNL1        0.0023
     20 C         138.5656  140.0333  156.1027 C.ar    1  UNL1        0.0298
     21 C         138.6521  140.2070  157.5901 C.ar    1  UNL1        0.1445
     22 F         138.0671  141.4268  158.2380 F       1  UNL1       -0.2040
     23 N         140.0076  141.0934  170.0355 N.pl3   1  UNL1       -0.2871
     24 H         139.8392  142.0543  170.1679 H       1  UNL1        0.1512
     25 C         140.9708  140.3706  170.9300 C.3     1  UNL1        0.0925
     26 C         142.4480  140.5120  170.7113 C.3     1  UNL1        0.0386
     27 C         142.9619  141.3679  169.5919 C.3     1  UNL1        0.0739
     28 C         142.1934  139.6399  163.8978 C.3     1  UNL1        0.0897
     29 N         142.3855  140.0719  165.3213 N.3     1  UNL1       -0.2691
     30 C         142.3939  141.5313  165.6676 C.3     1  UNL1        0.0897
     31 C         142.5860  141.9633  167.0911 C.3     1  UNL1        0.0897
     32 N         142.7698  140.9359  168.1684 N.3     1  UNL1       -0.2703
     33 C         142.7615  139.4765  167.8221 C.3     1  UNL1        0.0897
     34 C         142.5694  139.0445  166.3986 C.3     1  UNL1        0.0897
@<TRIPOS>BOND
     1    28    29    1
     2    29    30    1
     3    30    31    1
     4    31    32    1
     5    32    27    1
     6    27    26    1
     7    26    25    1
     8    25    23    1
     9    23     1    1
    10     1     2   ar
    11     2     3   ar
    12     3     4   ar
    13     4     6    1
    14     6     7   ar
    15     7     8   ar
    16     8     9   ar
    17     9    12    1
    18    12    13   am
    19    13    14    2
    20    13    16    1
    21    16    17   ar
    22    17    18   ar
    23    18    19   ar
    24    19    20   ar
    25    20    21   ar
    26    21    22    1
    27     9    10   ar
    28    10    11   ar
    29     4     5   ar
    30    32    33    1
    31    33    34    1
    32    34    29    1
    33     5     1   ar
    34    11     6   ar
    35    21    16   ar
    36    23    24    1
    37    12    15    1
@<TRIPOS>MOLECULE
*****
 34 37 0 0 0
SMALL
GASTEIGER

@<TRIPOS>ATOM
      1 C         142.7994  137.8357  157.2581 C.ar    1  UNL1        0.3086
      2 N         141.5314  138.6155  157.0734 N.ar    1  UNL1       -0.0923
      3 N         140.9644  138.9069  158.4312 N.ar    1  UNL1       -0.1058
      4 C         141.8820  138.3072  159.4551 C.ar    1  UNL1        0.2512
      5 O         143.0161  137.6451  158.7300 O.2     1  UNL1       -0.4048
      6 C         141.6980  138.3601  160.9428 C.ar    1  UNL1        0.0553
      7 C         142.8951  138.3963  161.8458 C.ar    1  UNL1        0.0060
      8 C         142.7110  138.4492  163.3335 C.ar    1  UNL1        0.0148
      9 C         141.3297  138.4660  163.9182 C.ar    1  UNL1        0.0505
     10 C         140.1325  138.4299  163.0151 C.ar    1  UNL1        0.0148
     11 C         140.3166  138.3769  161.5274 C.ar    1  UNL1        0.0060
     12 N         141.1456  138.5190  165.4059 N.am    1  UNL1       -0.2803
     13 C         140.9317  139.8374  166.0887 C.2     1  UNL1        0.2517
     14 O         140.9021  141.1027  165.2838 O.2     1  UNL1       -0.2697
     15 H         141.1651  137.6885  165.9342 H       1  UNL1        0.1552
     16 C         140.7476  139.8903  167.5764 C.ar    1  UNL1        0.0811
     17 C         139.4106  140.2489  168.1543 C.ar    1  UNL1        0.0068
     18 C         139.2264  140.3018  169.6420 C.ar    1  UNL1        0.0003
     19 C         140.3792  139.9962  170.5518 C.ar    1  UNL1        0.0023
     20 C         141.7161  139.6376  169.9738 C.ar    1  UNL1        0.0298
     21 C         141.9004  139.5847  168.4862 C.ar    1  UNL1        0.1445
     22 F         143.2372  139.2261  167.9083 F       1  UNL1       -0.2040
     23 N         143.6936  137.3345  156.1630 N.pl3   1  UNL1       -0.2871
     24 H         144.6580  137.2237  156.3270 H       1  UNL1        0.1512
     25 C         143.1184  137.0020  154.8181 C.3     1  UNL1        0.0925
     26 C         142.6917  135.5971  154.5114 C.3     1  UNL1        0.0386
     27 C         141.9866  134.7827  155.5553 C.3     1  UNL1        0.0739
     28 C         144.8217  130.2126  158.2155 C.3     1  UNL1        0.0897
     29 N         144.1129  131.3551  157.5504 N.3     1  UNL1       -0.2691
     30 C         144.5763  132.7626  157.7830 C.3     1  UNL1        0.0897
     31 C         143.8676  133.9051  157.1179 C.3     1  UNL1        0.0897
     32 N         142.6954  133.6401  156.2203 N.3     1  UNL1       -0.2703
     33 C         142.2320  132.2326  155.9878 C.3     1  UNL1        0.0897
     34 C         142.9407  131.0901  156.6529 C.3     1  UNL1        0.0897
@<TRIPOS>BOND
     1    28    29    1
     2    29    30    1
     3    30    31    1
     4    31    32    1
     5    32    27    1
     6    27    26    1
     7    26    25    1
     8    25    23    1
     9    23     1    1
    10     1     2   ar
    11     2     3   ar
    12     3     4   ar
    13     4     6    1
    14     6     7   ar
    15     7     8   ar
    16     8     9   ar
    17     9    12    1
    18    12    13   am
    19    13    14    2
    20    13    16    1
    21    16    17   ar
    22    17    18   ar
    23    18    19   ar
    24    19    20   ar
    25    20    21   ar
    26    21    22    1
    27     9    10   ar
    28    10    11   ar
    29     4     5   ar
    30    32    33    1
    31    33    34    1
    32    34    29    1
    33     5     1   ar
    34    11     6   ar
    35    21    16   ar
    36    23    24    1
    37    12    15    1
@<TRIPOS>MOLECULE
*****
 34 37 0 0 0
SMALL
GASTEIGER

@<TRIPOS>ATOM
      1 C         139.0702  139.8501  168.3752 C.ar    1  UNL1        0.3086
      2 N         138.1380  138.9213  167.6553 N.ar    1  UNL1       -0.0923
      3 N         138.2102  139.2356  166.1904 N.ar    1  UNL1       -0.1058
      4 C         139.1871  140.3586  166.0049 C.ar    1  UNL1        0.2512
      5 O         139.7186  140.7384  167.3552 O.2     1  UNL1       -0.4048
      6 C         139.5660  140.9909  164.6985 C.ar    1  UNL1        0.0553
      7 C         139.7199  142.4798  164.6026 C.ar    1  UNL1        0.0060
      8 C         140.0988  143.1121  163.2962 C.ar    1  UNL1        0.0148
      9 C         140.3237  142.2553  162.0857 C.ar    1  UNL1        0.0505
     10 C         140.1698  140.7663  162.1816 C.ar    1  UNL1        0.0148
     11 C         139.7909  140.1341  163.4880 C.ar    1  UNL1        0.0060
     12 N         140.7026  142.8876  160.7792 N.am    1  UNL1       -0.2803
     13 C         139.6351  143.3407  159.8278 C.2     1  UNL1        0.2517
     14 O         138.1888  143.1616  160.1828 O.2     1  UNL1       -0.2697
     15 H         141.6519  143.0052  160.5462 H       1  UNL1        0.1552
     16 C         140.0140  143.9729  158.5214 C.ar    1  UNL1        0.0811
     17 C         139.5272  143.3802  157.2323 C.ar    1  UNL1        0.0068
     18 C         139.9061  144.0123  155.9259 C.ar    1  UNL1        0.0003
     19 C         140.7717  145.2372  155.9085 C.ar    1  UNL1        0.0023
     20 C         141.2585  145.8299  157.1976 C.ar    1  UNL1        0.0298
     21 C         140.8796  145.1978  158.5041 C.ar    1  UNL1        0.1445
     22 F         141.3664  145.7905  159.7931 F       1  UNL1       -0.2040
     23 N         139.3117  139.8845  169.8552 N.pl3   1  UNL1       -0.2871
     24 H         138.9460  139.1741  170.4303 H       1  UNL1        0.1512
     25 C         140.1105  141.0014  170.4590 C.3     1  UNL1        0.0925
     26 C         141.5432  140.7768  170.8423 C.3     1  UNL1        0.0386
     27 C         142.4322  139.9445  169.9666 C.3     1  UNL1        0.0739
     28 C         143.4086  141.5697  164.2740 C.3     1  UNL1        0.0897
     29 N         143.1645  141.1634  165.6972 N.3     1  UNL1       -0.2691
     30 C         142.9830  139.7152  166.0431 C.3     1  UNL1        0.0897
     31 C         142.7389  139.3089  167.4662 C.3     1  UNL1        0.0897
     32 N         142.6763  140.3508  168.5434 N.3     1  UNL1       -0.2703
     33 C         142.8578  141.7990  168.1975 C.3     1  UNL1        0.0897
     34 C         143.1019  142.2053  166.7744 C.3     1  UNL1        0.0897
@<TRIPOS>BOND
     1    28    29    1
     2    29    30    1
     3    30    31    1
     4    31    32    1
     5    32    27    1
     6    27    26    1
     7    26    25    1
     8    25    23    1
     9    23     1    1
    10     1     2   ar
    11     2     3   ar
    12     3     4   ar
    13     4     6    1
    14     6     7   ar
    15     7     8   ar
    16     8     9   ar
    17     9    12    1
    18    12    13   am
    19    13    14    2
    20    13    16    1
    21    16    17   ar
    22    17    18   ar
    23    18    19   ar
    24    19    20   ar
    25    20    21   ar
    26    21    22    1
    27     9    10   ar
    28    10    11   ar
    29     4     5   ar
    30    32    33    1
    31    33    34    1
    32    34    29    1
    33     5     1   ar
    34    11     6   ar
    35    21    16   ar
    36    23    24    1
    37    12    15    1
@<TRIPOS>MOLECULE
*****
 34 37 0 0 0
SMALL
GASTEIGER

@<TRIPOS>ATOM
      1 C         141.8223  145.4505  158.0518 C.ar    1  UNL1        0.3086
      2 N         142.8776  144.3848  158.0258 N.ar    1  UNL1       -0.0923
      3 N         142.9029  143.7245  159.3724 N.ar    1  UNL1       -0.1058
      4 C         141.8633  144.3822  160.2307 C.ar    1  UNL1        0.2512
      5 O         141.1955  145.4489  159.4145 O.2     1  UNL1       -0.4048
      6 C         141.5470  144.0343  161.6551 C.ar    1  UNL1        0.0553
      7 C         141.4413  142.5968  162.0703 C.ar    1  UNL1        0.0060
      8 C         141.1250  142.2489  163.4947 C.ar    1  UNL1        0.0148
      9 C         140.9145  143.3385  164.5038 C.ar    1  UNL1        0.0505
     10 C         141.0202  144.7760  164.0886 C.ar    1  UNL1        0.0148
     11 C         141.3365  145.1240  162.6642 C.ar    1  UNL1        0.0060
     12 N         140.5982  142.9906  165.9283 N.am    1  UNL1       -0.2803
     13 C         141.6896  142.5282  166.8475 C.2     1  UNL1        0.2517
     14 O         143.0973  142.4137  166.3423 O.2     1  UNL1       -0.2697
     15 H         139.6742  143.0658  166.2599 H       1  UNL1        0.1552
     16 C         141.3734  142.1803  168.2719 C.ar    1  UNL1        0.0811
     17 C         140.4509  143.0534  169.0700 C.ar    1  UNL1        0.0068
     18 C         140.1346  142.7056  170.4944 C.ar    1  UNL1        0.0003
     19 C         140.7407  141.4847  171.1207 C.ar    1  UNL1        0.0023
     20 C         141.6631  140.6117  170.3225 C.ar    1  UNL1        0.0298
     21 C         141.9794  140.9595  168.8981 C.ar    1  UNL1        0.1445
     22 F         142.9018  140.0866  168.1001 F       1  UNL1       -0.2040
     23 N         141.4579  146.3584  156.9147 N.pl3   1  UNL1       -0.2871
     24 H         141.7668  147.2932  156.9127 H       1  UNL1        0.1512
     25 C         140.6227  145.8421  155.7807 C.3     1  UNL1        0.0925
     26 C         139.2597  146.4164  155.5310 C.3     1  UNL1        0.0386
     27 C         138.8605  147.7094  156.1782 C.3     1  UNL1        0.0739
     28 C         139.2931  152.8537  153.1207 C.3     1  UNL1        0.0897
     29 N         139.1849  151.5676  153.8851 N.3     1  UNL1       -0.2691
     30 C         139.7186  150.2966  153.2938 C.3     1  UNL1        0.0897
     31 C         139.6105  149.0105  154.0582 C.3     1  UNL1        0.0897
     32 N         138.9687  148.9955  155.4138 N.3     1  UNL1       -0.2703
     33 C         138.4350  150.2665  156.0051 C.3     1  UNL1        0.0897
     34 C         138.5432  151.5526  155.2407 C.3     1  UNL1        0.0897
@<TRIPOS>BOND
     1    28    29    1
     2    29    30    1
     3    30    31    1
     4    31    32    1
     5    32    27    1
     6    27    26    1
     7    26    25    1
     8    25    23    1
     9    23     1    1
    10     1     2   ar
    11     2     3   ar
    12     3     4   ar
    13     4     6    1
    14     6     7   ar
    15     7     8   ar
    16     8     9   ar
    17     9    12    1
    18    12    13   am
    19    13    14    2
    20    13    16    1
    21    16    17   ar
    22    17    18   ar
    23    18    19   ar
    24    19    20   ar
    25    20    21   ar
    26    21    22    1
    27     9    10   ar
    28    10    11   ar
    29     4     5   ar
    30    32    33    1
    31    33    34    1
    32    34    29    1
    33     5     1   ar
    34    11     6   ar
    35    21    16   ar
    36    23    24    1
    37    12    15    1
@<TRIPOS>MOLECULE
*****
 34 37 0 0 0
SMALL
GASTEIGER

@<TRIPOS>ATOM
      1 C         139.5504  138.0844  157.6175 C.ar    1  UNL1        0.3086
      2 N         138.7356  139.2910  157.2567 N.ar    1  UNL1       -0.0923
      3 N         138.4368  140.0431  158.5196 N.ar    1  UNL1       -0.1058
      4 C         139.0669  139.3013  159.6610 C.ar    1  UNL1        0.2512
      5 O         139.7551  138.0908  159.1034 O.2     1  UNL1       -0.4048
      6 C         139.0174  139.7001  161.1061 C.ar    1  UNL1        0.0553
      7 C         138.6807  141.1122  161.4834 C.ar    1  UNL1        0.0060
      8 C         138.6313  141.5109  162.9286 C.ar    1  UNL1        0.0148
      9 C         138.9185  140.4974  163.9965 C.ar    1  UNL1        0.0505
     10 C         139.2552  139.0852  163.6191 C.ar    1  UNL1        0.0148
     11 C         139.3047  138.6865  162.1740 C.ar    1  UNL1        0.0060
     12 N         138.8691  140.8961  165.4417 N.am    1  UNL1       -0.2803
     13 C         140.1303  141.2798  166.1575 C.2     1  UNL1        0.2517
     14 O         141.4409  141.2647  165.4280 O.2     1  UNL1       -0.2697
     15 H         138.0089  140.9060  165.9205 H       1  UNL1        0.1552
     16 C         140.0808  141.6784  167.6026 C.ar    1  UNL1        0.0811
     17 C         140.4928  143.0609  168.0137 C.ar    1  UNL1        0.0068
     18 C         140.4434  143.4597  169.4589 C.ar    1  UNL1        0.0003
     19 C         139.9820  142.4759  170.4930 C.ar    1  UNL1        0.0023
     20 C         139.5700  141.0934  170.0818 C.ar    1  UNL1        0.0298
     21 C         139.6194  140.6947  168.6367 C.ar    1  UNL1        0.1445
     22 F         139.2075  139.3123  168.2256 F       1  UNL1       -0.2040
     23 N         140.0693  137.0525  156.6604 N.pl3   1  UNL1       -0.2871
     24 H         139.4523  136.3984  156.2595 H       1  UNL1        0.1512
     25 C         141.5284  137.0173  156.3140 C.3     1  UNL1        0.0925
     26 C         142.5591  137.1813  157.3914 C.3     1  UNL1        0.0386
     27 C         142.9991  138.5542  157.8057 C.3     1  UNL1        0.0739
     28 C         144.3674  139.6627  163.5414 C.3     1  UNL1        0.0897
     29 N         144.0253  139.3856  162.1075 N.3     1  UNL1       -0.2691
     30 C         144.0957  140.4882  161.0930 C.3     1  UNL1        0.0897
     31 C         143.7536  140.2111  159.6591 C.3     1  UNL1        0.0897
     32 N         143.3412  138.8313  159.2396 N.3     1  UNL1       -0.2703
     33 C         143.2708  137.7287  160.2540 C.3     1  UNL1        0.0897
     34 C         143.6129  138.0058  161.6880 C.3     1  UNL1        0.0897
@<TRIPOS>BOND
     1    28    29    1
     2    29    30    1
     3    30    31    1
     4    31    32    1
     5    32    27    1
     6    27    26    1
     7    26    25    1
     8    25    23    1
     9    23     1    1
    10     1     2   ar
    11     2     3   ar
    12     3     4   ar
    13     4     6    1
    14     6     7   ar
    15     7     8   ar
    16     8     9   ar
    17     9    12    1
    18    12    13   am
    19    13    14    2
    20    13    16    1
    21    16    17   ar
    22    17    18   ar
    23    18    19   ar
    24    19    20   ar
    25    20    21   ar
    26    21    22    1
    27     9    10   ar
    28    10    11   ar
    29     4     5   ar
    30    32    33    1
    31    33    34    1
    32    34    29    1
    33     5     1   ar
    34    11     6   ar
    35    21    16   ar
    36    23    24    1
    37    12    15    1
@<TRIPOS>MOLECULE
*****
 34 37 0 0 0
SMALL
GASTEIGER

@<TRIPOS>ATOM
      1 C         140.6208  146.2026  157.6959 C.ar    1  UNL1        0.3086
      2 N         142.0381  145.7355  157.8471 N.ar    1  UNL1       -0.0923
      3 N         142.1746  145.0983  159.1982 N.ar    1  UNL1       -0.1058
      4 C         140.8416  145.1716  159.8820 C.ar    1  UNL1        0.2512
      5 O         139.8813  145.8541  158.9535 O.2     1  UNL1       -0.4048
      6 C         140.5245  144.6534  161.2534 C.ar    1  UNL1        0.0553
      7 C         140.5907  143.1812  161.5327 C.ar    1  UNL1        0.0060
      8 C         140.2736  142.6629  162.9042 C.ar    1  UNL1        0.0148
      9 C         139.8903  143.6170  163.9963 C.ar    1  UNL1        0.0505
     10 C         139.8241  145.0893  163.7170 C.ar    1  UNL1        0.0148
     11 C         140.1412  145.6075  162.3456 C.ar    1  UNL1        0.0060
     12 N         139.5732  143.0988  165.3679 N.am    1  UNL1       -0.2803
     13 C         140.6802  142.6449  166.2726 C.2     1  UNL1        0.2517
     14 O         142.1043  142.7091  165.8058 O.2     1  UNL1       -0.2697
     15 H         138.6385  143.0567  165.6742 H       1  UNL1        0.1552
     16 C         140.3631  142.1267  167.6440 C.ar    1  UNL1        0.0811
     17 C         140.4451  143.0425  168.8292 C.ar    1  UNL1        0.0068
     18 C         140.1280  142.5244  170.2007 C.ar    1  UNL1        0.0003
     19 C         139.7289  141.0906  170.3870 C.ar    1  UNL1        0.0023
     20 C         139.6469  140.1748  169.2018 C.ar    1  UNL1        0.0298
     21 C         139.9640  140.6929  167.8303 C.ar    1  UNL1        0.1445
     22 F         139.8820  139.7771  166.6452 F       1  UNL1       -0.2040
     23 N         140.0442  146.8964  156.4975 N.pl3   1  UNL1       -0.2871
     24 H         140.3257  147.8137  156.2769 H       1  UNL1        0.1512
     25 C         139.0385  146.1927  155.6352 C.3     1  UNL1        0.0925
     26 C         139.2115  144.7371  155.3168 C.3     1  UNL1        0.0386
     27 C         138.2576  143.7271  155.8824 C.3     1  UNL1        0.0739
     28 C         140.1801  139.7057  159.8989 C.3     1  UNL1        0.0897
     29 N         139.6995  140.7111  158.8948 N.3     1  UNL1       -0.2691
     30 C         140.6840  141.5954  158.1887 C.3     1  UNL1        0.0897
     31 C         140.2033  142.6008  157.1846 C.3     1  UNL1        0.0897
     32 N         138.7382  142.7218  156.8866 N.3     1  UNL1       -0.2703
     33 C         137.7538  141.8374  157.5927 C.3     1  UNL1        0.0897
     34 C         138.2344  140.8320  158.5968 C.3     1  UNL1        0.0897
@<TRIPOS>BOND
     1    28    29    1
     2    29    30    1
     3    30    31    1
     4    31    32    1
     5    32    27    1
     6    27    26    1
     7    26    25    1
     8    25    23    1
     9    23     1    1
    10     1     2   ar
    11     2     3   ar
    12     3     4   ar
    13     4     6    1
    14     6     7   ar
    15     7     8   ar
    16     8     9   ar
    17     9    12    1
    18    12    13   am
    19    13    14    2
    20    13    16    1
    21    16    17   ar
    22    17    18   ar
    23    18    19   ar
    24    19    20   ar
    25    20    21   ar
    26    21    22    1
    27     9    10   ar
    28    10    11   ar
    29     4     5   ar
    30    32    33    1
    31    33    34    1
    32    34    29    1
    33     5     1   ar
    34    11     6   ar
    35    21    16   ar
    36    23    24    1
    37    12    15    1
@<TRIPOS>MOLECULE
*****
 34 37 0 0 0
SMALL
GASTEIGER

@<TRIPOS>ATOM
      1 C         143.0625  137.6759  156.7401 C.ar    1  UNL1        0.3086
      2 N         143.7767  138.9895  156.8593 N.ar    1  UNL1       -0.0923
      3 N         143.7330  139.4121  158.2979 N.ar    1  UNL1       -0.1058
      4 C         142.9918  138.3596  159.0678 C.ar    1  UNL1        0.2512
      5 O         142.5774  137.2866  158.1050 O.2     1  UNL1       -0.4048
      6 C         142.7137  138.3771  160.5417 C.ar    1  UNL1        0.0553
      7 C         143.8492  138.4592  161.5182 C.ar    1  UNL1        0.0060
      8 C         143.5712  138.4766  162.9921 C.ar    1  UNL1        0.0148
      9 C         142.1575  138.4119  163.4894 C.ar    1  UNL1        0.0505
     10 C         141.0219  138.3298  162.5128 C.ar    1  UNL1        0.0148
     11 C         141.3000  138.3123  161.0389 C.ar    1  UNL1        0.0060
     12 N         141.8794  138.4294  164.9634 N.am    1  UNL1       -0.2803
     13 C         141.7973  139.7359  165.6957 C.2     1  UNL1        0.2517
     14 O         141.9933  141.0249  164.9541 O.2     1  UNL1       -0.2697
     15 H         141.7508  137.5833  165.4501 H       1  UNL1        0.1552
     16 C         141.5192  139.7533  167.1695 C.ar    1  UNL1        0.0811
     17 C         142.6065  139.4040  168.1420 C.ar    1  UNL1        0.0068
     18 C         142.3285  139.4214  169.6159 C.ar    1  UNL1        0.0003
     19 C         140.9632  139.7881  170.1173 C.ar    1  UNL1        0.0023
     20 C         139.8758  140.1373  169.1448 C.ar    1  UNL1        0.0298
     21 C         140.1539  140.1199  167.6709 C.ar    1  UNL1        0.1445
     22 F         139.0666  140.4691  166.6984 F       1  UNL1       -0.2040
     23 N         142.8676  136.8896  155.4776 N.pl3   1  UNL1       -0.2871
     24 H         142.8956  137.3447  154.6050 H       1  UNL1        0.1512
     25 C         142.6301  135.4100  155.5447 C.3     1  UNL1        0.0925
     26 C         143.6441  134.5164  156.1953 C.3     1  UNL1        0.0386
     27 C         143.2015  133.4616  157.1655 C.3     1  UNL1        0.0739
     28 C         141.6413  128.0203  155.1760 C.3     1  UNL1        0.0897
     29 N         142.0314  129.3806  155.6734 N.3     1  UNL1       -0.2691
     30 C         141.3659  130.6029  155.1140 C.3     1  UNL1        0.0897
     31 C         141.7559  131.9633  155.6114 C.3     1  UNL1        0.0897
     32 N         142.8114  132.1013  156.6681 N.3     1  UNL1       -0.2703
     33 C         143.4769  130.8789  157.2275 C.3     1  UNL1        0.0897
     34 C         143.0869  129.5186  156.7302 C.3     1  UNL1        0.0897
@<TRIPOS>BOND
     1    28    29    1
     2    29    30    1
     3    30    31    1
     4    31    32    1
     5    32    27    1
     6    27    26    1
     7    26    25    1
     8    25    23    1
     9    23     1    1
    10     1     2   ar
    11     2     3   ar
    12     3     4   ar
    13     4     6    1
    14     6     7   ar
    15     7     8   ar
    16     8     9   ar
    17     9    12    1
    18    12    13   am
    19    13    14    2
    20    13    16    1
    21    16    17   ar
    22    17    18   ar
    23    18    19   ar
    24    19    20   ar
    25    20    21   ar
    26    21    22    1
    27     9    10   ar
    28    10    11   ar
    29     4     5   ar
    30    32    33    1
    31    33    34    1
    32    34    29    1
    33     5     1   ar
    34    11     6   ar
    35    21    16   ar
    36    23    24    1
    37    12    15    1
@<TRIPOS>MOLECULE
*****
 34 37 0 0 0
SMALL
GASTEIGER

@<TRIPOS>ATOM
      1 C         140.3423  146.2348  158.0257 C.ar    1  UNL1        0.3086
      2 N         141.7175  145.7114  157.7345 N.ar    1  UNL1       -0.0923
      3 N         142.2056  144.9869  158.9539 N.ar    1  UNL1       -0.1058
      4 C         141.1320  145.0625  159.9987 C.ar    1  UNL1        0.2512
      5 O         139.9804  145.8337  159.4251 O.2     1  UNL1       -0.4048
      6 C         141.1983  144.4707  161.3754 C.ar    1  UNL1        0.0553
      7 C         141.3205  145.3670  162.5719 C.ar    1  UNL1        0.0060
      8 C         141.3868  144.7752  163.9487 C.ar    1  UNL1        0.0148
      9 C         141.3309  143.2871  164.1288 C.ar    1  UNL1        0.0505
     10 C         141.2087  142.3908  162.9323 C.ar    1  UNL1        0.0148
     11 C         141.1424  142.9826  161.5555 C.ar    1  UNL1        0.0060
     12 N         141.3972  142.6953  165.5056 N.am    1  UNL1       -0.2803
     13 C         142.6694  142.0662  165.9911 C.2     1  UNL1        0.2517
     14 O         143.8753  142.0290  165.0998 O.2     1  UNL1       -0.2697
     15 H         140.6057  142.7197  166.0906 H       1  UNL1        0.1552
     16 C         142.7357  141.4744  167.3677 C.ar    1  UNL1        0.0811
     17 C         143.1224  142.3331  168.5353 C.ar    1  UNL1        0.0068
     18 C         143.1887  141.7413  169.9121 C.ar    1  UNL1        0.0003
     19 C         142.8683  140.2910  170.1212 C.ar    1  UNL1        0.0023
     20 C         142.4816  139.4323  168.9536 C.ar    1  UNL1        0.0298
     21 C         142.4153  140.0241  167.5769 C.ar    1  UNL1        0.1445
     22 F         142.0286  139.1655  166.4094 F       1  UNL1       -0.2040
     23 N         139.4803  147.0212  157.0831 N.pl3   1  UNL1       -0.2871
     24 H         139.0057  147.8226  157.4023 H       1  UNL1        0.1512
     25 C         139.3414  146.5867  155.6541 C.3     1  UNL1        0.0925
     26 C         138.2161  145.6800  155.2519 C.3     1  UNL1        0.0386
     27 C         138.4873  144.2354  154.9526 C.3     1  UNL1        0.0739
     28 C         142.1559  141.0748  158.4954 C.3     1  UNL1        0.0897
     29 N         141.2387  141.8650  157.6097 N.3     1  UNL1       -0.2691
     30 C         141.7125  142.3314  156.2651 C.3     1  UNL1        0.0897
     31 C         140.7953  143.1216  155.3794 C.3     1  UNL1        0.0897
     32 N         139.4044  143.4453  155.8383 N.3     1  UNL1       -0.2703
     33 C         138.9307  142.9788  157.1829 C.3     1  UNL1        0.0897
     34 C         139.8479  142.1886  158.0686 C.3     1  UNL1        0.0897
@<TRIPOS>BOND
     1    28    29    1
     2    29    30    1
     3    30    31    1
     4    31    32    1
     5    32    27    1
     6    27    26    1
     7    26    25    1
     8    25    23    1
     9    23     1    1
    10     1     2   ar
    11     2     3   ar
    12     3     4   ar
    13     4     6    1
    14     6     7   ar
    15     7     8   ar
    16     8     9   ar
    17     9    12    1
    18    12    13   am
    19    13    14    2
    20    13    16    1
    21    16    17   ar
    22    17    18   ar
    23    18    19   ar
    24    19    20   ar
    25    20    21   ar
    26    21    22    1
    27     9    10   ar
    28    10    11   ar
    29     4     5   ar
    30    32    33    1
    31    33    34    1
    32    34    29    1
    33     5     1   ar
    34    11     6   ar
    35    21    16   ar
    36    23    24    1
    37    12    15    1
