@<TRIPOS>MOLECULE
*****
 33 37 0 0 0
SMALL
GASTEIGER

@<TRIPOS>ATOM
      1 N         140.5008  142.5718  164.0720 N.ar    1  UNL1       -0.1982
      2 N         140.7785  143.3626  165.3160 N.ar    1  UNL1       -0.1667
      3 C         140.2613  142.5810  166.4872 C.ar    1  UNL1        0.0849
      4 C         139.6640  141.3071  165.9670 C.ar    1  UNL1        0.0342
      5 C         139.0044  140.1516  166.6596 C.ar    1  UNL1        0.0141
      6 C         138.4929  138.9905  165.8596 C.ar    1  UNL1        0.0578
      7 CL        137.8333  137.8349  166.5523 Cl      1  UNL1       -0.0822
      8 C         138.6409  138.9848  164.3669 C.ar    1  UNL1        0.0129
      9 C         139.3005  140.1403  163.6743 C.ar    1  UNL1        0.0202
     10 C         139.8120  141.3015  164.4743 C.ar    1  UNL1        0.0870
     11 C         142.6442  144.0118  157.4414 C.3     1  UNL1        0.1353
     12 N         141.6703  144.4136  158.5092 N.ar    1  UNL1       -0.2728
     13 C         140.6458  145.5041  158.4030 C.ar    1  UNL1        0.3517
     14 O         140.4153  146.3842  157.2104 O.2     1  UNL1       -0.2444
     15 N         139.8924  145.5600  159.6988 N.ar    1  UNL1       -0.1734
     16 C         140.4512  144.5040  160.6059 C.ar    1  UNL1        0.1662
     17 N         140.1015  144.0961  162.0063 N.ar    1  UNL1       -0.3071
     18 C         140.8505  142.9797  162.6715 C.ar    1  UNL1        0.2329
     19 N         141.9494  142.2713  161.9362 N.ar    1  UNL1       -0.1954
     20 C         142.2992  142.6792  160.5358 C.ar    1  UNL1        0.1475
     21 N         143.3980  141.9707  159.8006 N.pl3   1  UNL1       -0.3413
     22 C         141.5501  143.7956  159.8706 C.ar    1  UNL1        0.1296
     23 H         139.3802  144.5611  162.4889 H       1  UNL1        0.1703
     24 H         143.8897  141.2380  160.2372 H       1  UNL1        0.1438
     25 H         143.6276  142.2384  158.8814 H       1  UNL1        0.1438
     26 C         140.3294  142.9997  167.9259 C.3     1  UNL1        0.0762
     27 C         141.1052  142.1761  168.9108 C.ar    1  UNL1        0.0113
     28 C         142.6049  142.1985  168.8906 C.ar    1  UNL1       -0.0017
     29 C         143.3805  141.3749  169.8754 C.ar    1  UNL1       -0.0002
     30 C         142.6565  140.5289  170.8804 C.ar    1  UNL1        0.0023
     31 C         141.1569  140.5065  170.9006 C.ar    1  UNL1        0.0293
     32 C         140.3812  141.3301  169.9158 C.ar    1  UNL1        0.1365
     33 F         138.8814  141.3077  169.9360 F       1  UNL1       -0.2045
@<TRIPOS>BOND
     1    11    12    1
     2    12    13   ar
     3    13    14    2
     4    13    15   ar
     5    15    16   ar
     6    16    17   ar
     7    17    18   ar
     8    18     1    1
     9     1     2   ar
    10     2     3   ar
    11     3    26    1
    12    26    27    1
    13    27    28   ar
    14    28    29   ar
    15    29    30   ar
    16    30    31   ar
    17    31    32   ar
    18    32    33    1
    19     3     4   ar
    20     4     5   ar
    21     5     6   ar
    22     6     7    1
    23     6     8   ar
    24     8     9   ar
    25     9    10   ar
    26    18    19   ar
    27    19    20   ar
    28    20    21    1
    29    20    22   ar
    30    22    12   ar
    31    22    16    1
    32    10     1   ar
    33    32    27   ar
    34    10     4   ar
    35    17    23    1
    36    21    24    1
    37    21    25    1
@<TRIPOS>MOLECULE
*****
 33 37 0 0 0
SMALL
GASTEIGER

@<TRIPOS>ATOM
      1 N         142.0460  144.4016  161.0238 N.ar    1  UNL1       -0.1982
      2 N         143.2823  143.8986  161.7083 N.ar    1  UNL1       -0.1667
      3 C         142.9793  143.7620  163.1710 C.ar    1  UNL1        0.0849
      4 C         141.5557  144.1806  163.3904 C.ar    1  UNL1        0.0342
      5 C         140.7100  144.2528  164.6272 C.ar    1  UNL1        0.0141
      6 C         139.2877  144.7203  164.5370 C.ar    1  UNL1        0.0578
      7 CL        138.4420  144.7925  165.7739 Cl      1  UNL1       -0.0822
      8 C         138.7108  145.1156  163.2099 C.ar    1  UNL1        0.0129
      9 C         139.5565  145.0434  161.9731 C.ar    1  UNL1        0.0202
     10 C         140.9789  144.5758  162.0634 C.ar    1  UNL1        0.0870
     11 C         141.8877  145.2867  153.9652 C.3     1  UNL1        0.1353
     12 N         141.2388  145.7102  155.2496 N.ar    1  UNL1       -0.2728
     13 C         140.1005  146.6775  155.3853 C.ar    1  UNL1        0.3517
     14 O         139.4112  147.3914  154.2604 O.2     1  UNL1       -0.2444
     15 N         139.7726  146.8058  156.8434 N.ar    1  UNL1       -0.1734
     16 C         140.7082  145.9176  157.6088 C.ar    1  UNL1        0.1662
     17 N         140.8521  145.6380  159.0754 N.ar    1  UNL1       -0.3071
     18 C         141.9021  144.6813  159.5570 C.ar    1  UNL1        0.2329
     19 N         142.8083  144.0041  158.5720 N.ar    1  UNL1       -0.1954
     20 C         142.6645  144.2838  157.1054 C.ar    1  UNL1        0.1475
     21 N         143.5707  143.6066  156.1203 N.pl3   1  UNL1       -0.3413
     22 C         141.6144  145.2405  156.6238 C.ar    1  UNL1        0.1296
     23 H         140.2573  146.0824  159.7219 H       1  UNL1        0.1703
     24 H         144.2598  142.9787  156.4364 H       1  UNL1        0.1438
     25 H         143.4762  143.7901  155.1577 H       1  UNL1        0.1438
     26 C         143.9325  143.2898  164.2285 C.3     1  UNL1        0.0762
     27 C         143.9744  141.8388  164.6065 C.ar    1  UNL1        0.0113
     28 C         142.9534  141.2805  165.5529 C.ar    1  UNL1       -0.0017
     29 C         142.9953  139.8296  165.9309 C.ar    1  UNL1       -0.0002
     30 C         144.0583  138.9369  165.3625 C.ar    1  UNL1        0.0023
     31 C         145.0794  139.4951  164.4161 C.ar    1  UNL1        0.0293
     32 C         145.0374  140.9461  164.0381 C.ar    1  UNL1        0.1365
     33 F         146.0585  141.5044  163.0916 F       1  UNL1       -0.2045
@<TRIPOS>BOND
     1    11    12    1
     2    12    13   ar
     3    13    14    2
     4    13    15   ar
     5    15    16   ar
     6    16    17   ar
     7    17    18   ar
     8    18     1    1
     9     1     2   ar
    10     2     3   ar
    11     3    26    1
    12    26    27    1
    13    27    28   ar
    14    28    29   ar
    15    29    30   ar
    16    30    31   ar
    17    31    32   ar
    18    32    33    1
    19     3     4   ar
    20     4     5   ar
    21     5     6   ar
    22     6     7    1
    23     6     8   ar
    24     8     9   ar
    25     9    10   ar
    26    18    19   ar
    27    19    20   ar
    28    20    21    1
    29    20    22   ar
    30    22    12   ar
    31    22    16    1
    32    10     1   ar
    33    32    27   ar
    34    10     4   ar
    35    17    23    1
    36    21    24    1
    37    21    25    1
@<TRIPOS>MOLECULE
*****
 33 37 0 0 0
SMALL
GASTEIGER

@<TRIPOS>ATOM
      1 N         139.7794  139.0197  160.9195 N.ar    1  UNL1       -0.1982
      2 N         139.7020  138.0919  162.0956 N.ar    1  UNL1       -0.1667
      3 C         139.1019  138.8480  163.2437 C.ar    1  UNL1        0.0849
      4 C         138.8084  140.2431  162.7772 C.ar    1  UNL1        0.0342
      5 C         138.2140  141.4306  163.4747 C.ar    1  UNL1        0.0141
      6 C         138.0383  142.7240  162.7359 C.ar    1  UNL1        0.0578
      7 CL        137.4438  143.9115  163.4335 Cl      1  UNL1       -0.0822
      8 C         138.4570  142.8302  161.2994 C.ar    1  UNL1        0.0129
      9 C         139.0514  141.6427  160.6018 C.ar    1  UNL1        0.0202
     10 C         139.2271  140.3492  161.3407 C.ar    1  UNL1        0.0870
     11 C         141.6902  137.1519  154.3246 C.3     1  UNL1        0.1353
     12 N         142.1886  137.7747  155.5950 N.ar    1  UNL1       -0.2728
     13 C         143.5769  138.2871  155.8402 C.ar    1  UNL1        0.3517
     14 O         144.7106  138.2666  154.8582 O.2     1  UNL1       -0.2444
     15 N         143.6324  138.8234  157.2399 N.ar    1  UNL1       -0.1734
     16 C         142.2785  138.6426  157.8598 C.ar    1  UNL1        0.1662
     17 N         141.7429  138.9843  159.2185 N.ar    1  UNL1       -0.3071
     18 C         140.3150  138.6779  159.5606 C.ar    1  UNL1        0.2329
     19 N         139.4227  138.0298  158.5440 N.ar    1  UNL1       -0.1954
     20 C         139.9582  137.6880  157.1852 C.ar    1  UNL1        0.1475
     21 N         139.0659  137.0398  156.1686 N.pl3   1  UNL1       -0.3413
     22 C         141.3862  137.9944  156.8431 C.ar    1  UNL1        0.1296
     23 H         142.3286  139.4098  159.8858 H       1  UNL1        0.1703
     24 H         138.1287  136.8387  156.3931 H       1  UNL1        0.1438
     25 H         139.4174  136.8155  155.2768 H       1  UNL1        0.1438
     26 C         138.8410  138.3045  164.6172 C.3     1  UNL1        0.0762
     27 C         139.4816  138.9465  165.8120 C.ar    1  UNL1        0.0113
     28 C         140.9354  139.3142  165.7766 C.ar    1  UNL1       -0.0017
     29 C         141.5759  139.9562  166.9713 C.ar    1  UNL1       -0.0002
     30 C         140.7627  140.2306  168.2015 C.ar    1  UNL1        0.0023
     31 C         139.3089  139.8630  168.2369 C.ar    1  UNL1        0.0293
     32 C         138.6684  139.2209  167.0421 C.ar    1  UNL1        0.1365
     33 F         137.2145  138.8532  167.0776 F       1  UNL1       -0.2045
@<TRIPOS>BOND
     1    11    12    1
     2    12    13   ar
     3    13    14    2
     4    13    15   ar
     5    15    16   ar
     6    16    17   ar
     7    17    18   ar
     8    18     1    1
     9     1     2   ar
    10     2     3   ar
    11     3    26    1
    12    26    27    1
    13    27    28   ar
    14    28    29   ar
    15    29    30   ar
    16    30    31   ar
    17    31    32   ar
    18    32    33    1
    19     3     4   ar
    20     4     5   ar
    21     5     6   ar
    22     6     7    1
    23     6     8   ar
    24     8     9   ar
    25     9    10   ar
    26    18    19   ar
    27    19    20   ar
    28    20    21    1
    29    20    22   ar
    30    22    12   ar
    31    22    16    1
    32    10     1   ar
    33    32    27   ar
    34    10     4   ar
    35    17    23    1
    36    21    24    1
    37    21    25    1
@<TRIPOS>MOLECULE
*****
 33 37 0 0 0
SMALL
GASTEIGER

@<TRIPOS>ATOM
      1 N         140.7343  142.3988  164.0410 N.ar    1  UNL1       -0.1982
      2 N         140.9593  143.2198  165.2760 N.ar    1  UNL1       -0.1667
      3 C         140.3539  142.4870  166.4364 C.ar    1  UNL1        0.0849
      4 C         139.7547  141.2131  165.9184 C.ar    1  UNL1        0.0342
      5 C         139.0254  140.0956  166.6036 C.ar    1  UNL1        0.0141
      6 C         138.5313  138.9238  165.8084 C.ar    1  UNL1        0.0578
      7 CL        137.8019  137.8063  166.4936 Cl      1  UNL1       -0.0822
      8 C         138.7664  138.8693  164.3278 C.ar    1  UNL1        0.0129
      9 C         139.4957  139.9867  163.6427 C.ar    1  UNL1        0.0202
     10 C         139.9898  141.1586  164.4380 C.ar    1  UNL1        0.0870
     11 C         142.2666  144.4910  157.4147 C.3     1  UNL1        0.1353
     12 N         142.7419  143.6337  158.5501 N.ar    1  UNL1       -0.2728
     13 C         143.9826  142.7907  158.5590 C.ar    1  UNL1        0.3517
     14 O         144.9658  142.6570  157.4341 O.2     1  UNL1       -0.2444
     15 N         144.0674  142.1048  159.8903 N.ar    1  UNL1       -0.1734
     16 C         142.8791  142.5239  160.7042 C.ar    1  UNL1        0.1662
     17 N         142.4373  142.1673  162.0925 N.ar    1  UNL1       -0.3071
     18 C         141.1762  142.7555  162.6526 C.ar    1  UNL1        0.2329
     19 N         140.3570  143.7004  161.8243 N.ar    1  UNL1       -0.1954
     20 C         140.7989  144.0571  160.4359 C.ar    1  UNL1        0.1475
     21 N         139.9797  145.0020  159.6076 N.pl3   1  UNL1       -0.3413
     22 C         142.0600  143.4688  159.8759 C.ar    1  UNL1        0.1296
     23 H         142.9749  141.5471  162.6362 H       1  UNL1        0.1703
     24 H         139.1520  145.3881  159.9752 H       1  UNL1        0.1438
     25 H         140.2698  145.2361  158.6964 H       1  UNL1        0.1438
     26 C         140.3485  142.9472  167.8640 C.3     1  UNL1        0.0762
     27 C         141.1071  142.1763  168.9034 C.ar    1  UNL1        0.0113
     28 C         142.6071  142.1847  168.8972 C.ar    1  UNL1       -0.0017
     29 C         143.3656  141.4138  169.9366 C.ar    1  UNL1       -0.0002
     30 C         142.6242  140.6346  170.9821 C.ar    1  UNL1        0.0023
     31 C         141.1243  140.6262  170.9882 C.ar    1  UNL1        0.0293
     32 C         140.3657  141.3971  169.9488 C.ar    1  UNL1        0.1365
     33 F         138.8657  141.3887  169.9550 F       1  UNL1       -0.2045
@<TRIPOS>BOND
     1    11    12    1
     2    12    13   ar
     3    13    14    2
     4    13    15   ar
     5    15    16   ar
     6    16    17   ar
     7    17    18   ar
     8    18     1    1
     9     1     2   ar
    10     2     3   ar
    11     3    26    1
    12    26    27    1
    13    27    28   ar
    14    28    29   ar
    15    29    30   ar
    16    30    31   ar
    17    31    32   ar
    18    32    33    1
    19     3     4   ar
    20     4     5   ar
    21     5     6   ar
    22     6     7    1
    23     6     8   ar
    24     8     9   ar
    25     9    10   ar
    26    18    19   ar
    27    19    20   ar
    28    20    21    1
    29    20    22   ar
    30    22    12   ar
    31    22    16    1
    32    10     1   ar
    33    32    27   ar
    34    10     4   ar
    35    17    23    1
    36    21    24    1
    37    21    25    1
@<TRIPOS>MOLECULE
*****
 33 37 0 0 0
SMALL
GASTEIGER

@<TRIPOS>ATOM
      1 N         141.0858  141.7164  163.8128 N.ar    1  UNL1       -0.1982
      2 N         141.2461  142.7030  164.9312 N.ar    1  UNL1       -0.1667
      3 C         140.4981  142.1800  166.1216 C.ar    1  UNL1        0.0849
      4 C         139.8755  140.8700  165.7388 C.ar    1  UNL1        0.0342
      5 C         139.0248  139.9011  166.5051 C.ar    1  UNL1        0.0141
      6 C         138.5373  138.6457  165.8447 C.ar    1  UNL1        0.0578
      7 CL        137.6865  137.6767  166.6111 Cl      1  UNL1       -0.0822
      8 C         138.9005  138.3592  164.4178 C.ar    1  UNL1        0.0129
      9 C         139.7512  139.3281  163.6514 C.ar    1  UNL1        0.0202
     10 C         140.2387  140.5836  164.3119 C.ar    1  UNL1        0.0870
     11 C         143.6248  142.9593  157.2828 C.3     1  UNL1        0.1353
     12 N         143.5087  141.9161  158.3543 N.ar    1  UNL1       -0.2728
     13 C         144.0424  140.5160  158.2834 C.ar    1  UNL1        0.3517
     14 O         144.7859  139.9134  157.1284 O.2     1  UNL1       -0.2444
     15 N         143.7020  139.8245  159.5701 N.ar    1  UNL1       -0.1734
     16 C         142.9579  140.7971  160.4364 C.ar    1  UNL1        0.1662
     17 N         142.3737  140.6726  161.8123 N.ar    1  UNL1       -0.3071
     18 C         141.6700  141.8408  162.4368 C.ar    1  UNL1        0.2329
     19 N         141.5506  143.1335  161.6854 N.ar    1  UNL1       -0.1954
     20 C         142.1347  143.2580  160.3095 C.ar    1  UNL1        0.1475
     21 N         142.0153  144.5507  159.5580 N.pl3   1  UNL1       -0.3413
     22 C         142.8384  142.0898  159.6850 C.ar    1  UNL1        0.1296
     23 H         142.4521  139.8241  162.3055 H       1  UNL1        0.1703
     24 H         141.5534  145.3175  159.9679 H       1  UNL1        0.1438
     25 H         142.3987  144.6324  158.6550 H       1  UNL1        0.1438
     26 C         140.3914  142.8493  167.4597 C.3     1  UNL1        0.0762
     27 C         140.9725  142.1911  168.6759 C.ar    1  UNL1        0.0113
     28 C         140.0664  141.6675  169.7505 C.ar    1  UNL1       -0.0017
     29 C         140.6475  141.0094  170.9666 C.ar    1  UNL1       -0.0002
     30 C         142.1347  140.8748  171.1082 C.ar    1  UNL1        0.0023
     31 C         143.0408  141.3984  170.0337 C.ar    1  UNL1        0.0293
     32 C         142.4597  142.0565  168.8175 C.ar    1  UNL1        0.1365
     33 F         143.3659  142.5801  167.7428 F       1  UNL1       -0.2045
@<TRIPOS>BOND
     1    11    12    1
     2    12    13   ar
     3    13    14    2
     4    13    15   ar
     5    15    16   ar
     6    16    17   ar
     7    17    18   ar
     8    18     1    1
     9     1     2   ar
    10     2     3   ar
    11     3    26    1
    12    26    27    1
    13    27    28   ar
    14    28    29   ar
    15    29    30   ar
    16    30    31   ar
    17    31    32   ar
    18    32    33    1
    19     3     4   ar
    20     4     5   ar
    21     5     6   ar
    22     6     7    1
    23     6     8   ar
    24     8     9   ar
    25     9    10   ar
    26    18    19   ar
    27    19    20   ar
    28    20    21    1
    29    20    22   ar
    30    22    12   ar
    31    22    16    1
    32    10     1   ar
    33    32    27   ar
    34    10     4   ar
    35    17    23    1
    36    21    24    1
    37    21    25    1
@<TRIPOS>MOLECULE
*****
 33 37 0 0 0
SMALL
GASTEIGER

@<TRIPOS>ATOM
      1 N         142.0402  144.4305  160.7644 N.ar    1  UNL1       -0.1982
      2 N         143.2870  143.9443  161.4420 N.ar    1  UNL1       -0.1667
      3 C         143.0034  143.8341  162.9108 C.ar    1  UNL1        0.0849
      4 C         141.5813  144.2523  163.1410 C.ar    1  UNL1        0.0342
      5 C         140.7516  144.3451  164.3871 C.ar    1  UNL1        0.0141
      6 C         139.3267  144.8065  164.3067 C.ar    1  UNL1        0.0578
      7 CL        138.4968  144.8993  165.5529 Cl      1  UNL1       -0.0822
      8 C         138.7313  145.1751  162.9801 C.ar    1  UNL1        0.0129
      9 C         139.5611  145.0823  161.7340 C.ar    1  UNL1        0.0202
     10 C         140.9861  144.6209  161.8144 C.ar    1  UNL1        0.0870
     11 C         140.7969  146.1082  153.9621 C.3     1  UNL1        0.1353
     12 N         141.6002  145.2113  154.8566 N.ar    1  UNL1       -0.2728
     13 C         142.5961  144.1826  154.4093 C.ar    1  UNL1        0.3517
     14 O         142.9635  143.8702  152.9890 O.2     1  UNL1       -0.2444
     15 N         143.1600  143.5212  155.6318 N.ar    1  UNL1       -0.1734
     16 C         142.5127  144.1411  156.8346 C.ar    1  UNL1        0.1662
     17 N         142.6766  143.8894  158.3042 N.ar    1  UNL1       -0.3071
     18 C         141.8764  144.6822  159.2947 C.ar    1  UNL1        0.2329
     19 N         140.9123  145.7268  158.8156 N.ar    1  UNL1       -0.1954
     20 C         140.7485  145.9785  157.3460 C.ar    1  UNL1        0.1475
     21 N         139.7845  147.0230  156.8669 N.pl3   1  UNL1       -0.3413
     22 C         141.5487  145.1857  156.3555 C.ar    1  UNL1        0.1296
     23 H         143.3093  143.2038  158.6187 H       1  UNL1        0.1703
     24 H         139.2593  147.5434  157.5170 H       1  UNL1        0.1438
     25 H         139.6769  147.1883  155.9023 H       1  UNL1        0.1438
     26 C         143.9718  143.3847  163.9645 C.3     1  UNL1        0.0762
     27 C         144.0105  141.9446  164.3823 C.ar    1  UNL1        0.0113
     28 C         142.8991  141.3744  165.2129 C.ar    1  UNL1       -0.0017
     29 C         142.9379  139.9344  165.6306 C.ar    1  UNL1       -0.0002
     30 C         144.0880  139.0644  165.2178 C.ar    1  UNL1        0.0023
     31 C         145.1993  139.6345  164.3873 C.ar    1  UNL1        0.0293
     32 C         145.1606  141.0746  163.9695 C.ar    1  UNL1        0.1365
     33 F         146.2720  141.6447  163.1389 F       1  UNL1       -0.2045
@<TRIPOS>BOND
     1    11    12    1
     2    12    13   ar
     3    13    14    2
     4    13    15   ar
     5    15    16   ar
     6    16    17   ar
     7    17    18   ar
     8    18     1    1
     9     1     2   ar
    10     2     3   ar
    11     3    26    1
    12    26    27    1
    13    27    28   ar
    14    28    29   ar
    15    29    30   ar
    16    30    31   ar
    17    31    32   ar
    18    32    33    1
    19     3     4   ar
    20     4     5   ar
    21     5     6   ar
    22     6     7    1
    23     6     8   ar
    24     8     9   ar
    25     9    10   ar
    26    18    19   ar
    27    19    20   ar
    28    20    21    1
    29    20    22   ar
    30    22    12   ar
    31    22    16    1
    32    10     1   ar
    33    32    27   ar
    34    10     4   ar
    35    17    23    1
    36    21    24    1
    37    21    25    1
@<TRIPOS>MOLECULE
*****
 33 37 0 0 0
SMALL
GASTEIGER

@<TRIPOS>ATOM
      1 N         142.3202  142.2430  162.8115 N.ar    1  UNL1       -0.1982
      2 N         142.9789  141.5163  163.9465 N.ar    1  UNL1       -0.1667
      3 C         142.2735  141.8993  165.2137 C.ar    1  UNL1        0.0849
      4 C         141.1789  142.8627  164.8618 C.ar    1  UNL1        0.0342
      5 C         140.1596  143.5740  165.7015 C.ar    1  UNL1        0.0141
      6 C         139.1692  144.4976  165.0566 C.ar    1  UNL1        0.0578
      7 CL        138.1499  145.2090  165.8964 Cl      1  UNL1       -0.0822
      8 C         139.1981  144.7101  163.5720 C.ar    1  UNL1        0.0129
      9 C         140.2174  143.9988  162.7323 C.ar    1  UNL1        0.0202
     10 C         141.2078  143.0751  163.3772 C.ar    1  UNL1        0.0870
     11 C         144.0070  142.4935  155.9032 C.3     1  UNL1        0.1353
     12 N         143.9172  141.5825  157.0915 N.ar    1  UNL1       -0.2728
     13 C         144.2506  140.1201  157.1085 C.ar    1  UNL1        0.3517
     14 O         144.7322  139.3119  155.9402 O.2     1  UNL1       -0.2444
     15 N         144.0177  139.6078  158.4989 N.ar    1  UNL1       -0.1734
     16 C         143.5405  140.7536  159.3413 C.ar    1  UNL1        0.1662
     17 N         143.1544  140.8432  160.7879 N.ar    1  UNL1       -0.3071
     18 C         142.7063  142.1533  161.3647 C.ar    1  UNL1        0.2329
     19 N         142.6442  143.3738  160.4949 N.ar    1  UNL1       -0.1954
     20 C         143.0302  143.2841  159.0482 C.ar    1  UNL1        0.1475
     21 N         142.9681  144.5045  158.1783 N.pl3   1  UNL1       -0.3413
     22 C         143.4784  141.9740  158.4714 C.ar    1  UNL1        0.1296
     23 H         143.1952  140.0422  161.3589 H       1  UNL1        0.1703
     24 H         142.6739  145.3644  158.5569 H       1  UNL1        0.1438
     25 H         143.2215  144.4457  157.2288 H       1  UNL1        0.1438
     26 C         142.6046  141.4056  166.5908 C.3     1  UNL1        0.0762
     27 C         141.5076  141.1649  167.5851 C.ar    1  UNL1        0.0113
     28 C         140.4396  140.1529  167.2932 C.ar    1  UNL1       -0.0017
     29 C         139.3427  139.9122  168.2875 C.ar    1  UNL1       -0.0002
     30 C         139.3137  140.6835  169.5737 C.ar    1  UNL1        0.0023
     31 C         140.3816  141.6955  169.8655 C.ar    1  UNL1        0.0293
     32 C         141.4786  141.9362  168.8713 C.ar    1  UNL1        0.1365
     33 F         142.5466  142.9482  169.1631 F       1  UNL1       -0.2045
@<TRIPOS>BOND
     1    11    12    1
     2    12    13   ar
     3    13    14    2
     4    13    15   ar
     5    15    16   ar
     6    16    17   ar
     7    17    18   ar
     8    18     1    1
     9     1     2   ar
    10     2     3   ar
    11     3    26    1
    12    26    27    1
    13    27    28   ar
    14    28    29   ar
    15    29    30   ar
    16    30    31   ar
    17    31    32   ar
    18    32    33    1
    19     3     4   ar
    20     4     5   ar
    21     5     6   ar
    22     6     7    1
    23     6     8   ar
    24     8     9   ar
    25     9    10   ar
    26    18    19   ar
    27    19    20   ar
    28    20    21    1
    29    20    22   ar
    30    22    12   ar
    31    22    16    1
    32    10     1   ar
    33    32    27   ar
    34    10     4   ar
    35    17    23    1
    36    21    24    1
    37    21    25    1
@<TRIPOS>MOLECULE
*****
 33 37 0 0 0
SMALL
GASTEIGER

@<TRIPOS>ATOM
      1 N         141.1002  143.2999  161.5709 N.ar    1  UNL1       -0.1982
      2 N         140.2140  143.5941  162.7448 N.ar    1  UNL1       -0.1667
      3 C         140.7888  142.9013  163.9447 C.ar    1  UNL1        0.0849
      4 C         142.0302  142.1788  163.5122 C.ar    1  UNL1        0.0342
      5 C         143.0103  141.3285  164.2648 C.ar    1  UNL1        0.0141
      6 C         144.1828  140.7246  163.5504 C.ar    1  UNL1        0.0578
      7 CL        145.1629  139.8742  164.3031 Cl      1  UNL1       -0.0822
      8 C         144.3753  140.9709  162.0833 C.ar    1  UNL1        0.0129
      9 C         143.3952  141.8213  161.3307 C.ar    1  UNL1        0.0202
     10 C         142.2227  142.4252  162.0452 C.ar    1  UNL1        0.0870
     11 C         140.6948  146.0536  155.0222 C.3     1  UNL1        0.1353
     12 N         140.0557  145.0740  155.9614 N.ar    1  UNL1       -0.2728
     13 C         138.8628  144.2152  155.6622 C.ar    1  UNL1        0.3517
     14 O         138.0996  144.1852  154.3712 O.2     1  UNL1       -0.2444
     15 N         138.5672  143.3918  156.8806 N.ar    1  UNL1       -0.1734
     16 C         139.5773  143.7416  157.9328 C.ar    1  UNL1        0.1662
     17 N         139.7783  143.2478  159.3349 N.ar    1  UNL1       -0.3071
     18 C         140.8992  143.7937  160.1688 C.ar    1  UNL1        0.2329
     19 N         141.8191  144.8334  159.6007 N.ar    1  UNL1       -0.1954
     20 C         141.6182  145.3273  158.1987 C.ar    1  UNL1        0.1475
     21 N         142.5381  146.3670  157.6306 N.pl3   1  UNL1       -0.3413
     22 C         140.4973  144.7814  157.3648 C.ar    1  UNL1        0.1296
     23 H         139.1745  142.5654  159.7077 H       1  UNL1        0.1703
     24 H         143.2738  146.7253  158.1780 H       1  UNL1        0.1438
     25 H         142.4062  146.6911  156.7104 H       1  UNL1        0.1438
     26 C         140.2217  142.9264  165.3331 C.3     1  UNL1        0.0762
     27 C         139.6710  141.6706  165.9411 C.ar    1  UNL1        0.0113
     28 C         140.1601  141.2095  167.2821 C.ar    1  UNL1       -0.0017
     29 C         139.6094  139.9537  167.8900 C.ar    1  UNL1       -0.0002
     30 C         138.5696  139.1591  167.1571 C.ar    1  UNL1        0.0023
     31 C         138.0804  139.6201  165.8162 C.ar    1  UNL1        0.0293
     32 C         138.6311  140.8759  165.2082 C.ar    1  UNL1        0.1365
     33 F         138.1420  141.3371  163.8673 F       1  UNL1       -0.2045
@<TRIPOS>BOND
     1    11    12    1
     2    12    13   ar
     3    13    14    2
     4    13    15   ar
     5    15    16   ar
     6    16    17   ar
     7    17    18   ar
     8    18     1    1
     9     1     2   ar
    10     2     3   ar
    11     3    26    1
    12    26    27    1
    13    27    28   ar
    14    28    29   ar
    15    29    30   ar
    16    30    31   ar
    17    31    32   ar
    18    32    33    1
    19     3     4   ar
    20     4     5   ar
    21     5     6   ar
    22     6     7    1
    23     6     8   ar
    24     8     9   ar
    25     9    10   ar
    26    18    19   ar
    27    19    20   ar
    28    20    21    1
    29    20    22   ar
    30    22    12   ar
    31    22    16    1
    32    10     1   ar
    33    32    27   ar
    34    10     4   ar
    35    17    23    1
    36    21    24    1
    37    21    25    1
@<TRIPOS>MOLECULE
*****
 33 37 0 0 0
SMALL
GASTEIGER

@<TRIPOS>ATOM
      1 N         142.5344  138.7846  160.2933 N.ar    1  UNL1       -0.1982
      2 N         143.7938  139.5714  160.5054 N.ar    1  UNL1       -0.1667
      3 C         143.8412  139.9914  161.9446 C.ar    1  UNL1        0.0849
      4 C         142.6111  139.4641  162.6220 C.ar    1  UNL1        0.0342
      5 C         142.1220  139.5668  164.0363 C.ar    1  UNL1        0.0141
      6 C         140.8255  138.9237  164.4301 C.ar    1  UNL1        0.0578
      7 CL        140.3364  139.0264  165.8445 Cl      1  UNL1       -0.0822
      8 C         140.0178  138.1778  163.4096 C.ar    1  UNL1        0.0129
      9 C         140.5068  138.0751  161.9953 C.ar    1  UNL1        0.0202
     10 C         141.8035  138.7183  161.6015 C.ar    1  UNL1        0.0870
     11 C         141.0032  135.5326  154.1523 C.3     1  UNL1        0.1353
     12 N         140.4801  136.5078  155.1649 N.ar    1  UNL1       -0.2728
     13 C         139.1592  137.2163  155.1063 C.ar    1  UNL1        0.3517
     14 O         138.1295  137.0738  154.0249 O.2     1  UNL1       -0.2444
     15 N         139.0488  138.0921  156.3190 N.ar    1  UNL1       -0.1734
     16 C         140.3015  137.9250  157.1271 C.ar    1  UNL1        0.1662
     17 N         140.7509  138.5379  158.4203 N.ar    1  UNL1       -0.3071
     18 C         142.0849  138.1717  159.0001 C.ar    1  UNL1        0.2329
     19 N         142.9695  137.1925  158.2868 N.ar    1  UNL1       -0.1954
     20 C         142.5201  136.5796  156.9936 C.ar    1  UNL1        0.1475
     21 N         143.4046  135.6005  156.2803 N.pl3   1  UNL1       -0.3413
     22 C         141.1861  136.9459  156.4138 C.ar    1  UNL1        0.1296
     23 H         140.1703  139.1805  158.8884 H       1  UNL1        0.1703
     24 H         144.2802  135.3601  156.6609 H       1  UNL1        0.1438
     25 H         143.1096  135.1982  155.4315 H       1  UNL1        0.1438
     26 C         144.9279  140.7971  162.5926 C.3     1  UNL1        0.0762
     27 C         144.6132  142.1358  163.1917 C.ar    1  UNL1        0.0113
     28 C         144.6541  142.3198  164.6798 C.ar    1  UNL1       -0.0017
     29 C         144.3395  143.6585  165.2788 C.ar    1  UNL1       -0.0002
     30 C         143.9840  144.8131  164.3898 C.ar    1  UNL1        0.0023
     31 C         143.9431  144.6291  162.9017 C.ar    1  UNL1        0.0293
     32 C         144.2578  143.2904  162.3026 C.ar    1  UNL1        0.1365
     33 F         144.2169  143.1064  160.8145 F       1  UNL1       -0.2045
@<TRIPOS>BOND
     1    11    12    1
     2    12    13   ar
     3    13    14    2
     4    13    15   ar
     5    15    16   ar
     6    16    17   ar
     7    17    18   ar
     8    18     1    1
     9     1     2   ar
    10     2     3   ar
    11     3    26    1
    12    26    27    1
    13    27    28   ar
    14    28    29   ar
    15    29    30   ar
    16    30    31   ar
    17    31    32   ar
    18    32    33    1
    19     3     4   ar
    20     4     5   ar
    21     5     6   ar
    22     6     7    1
    23     6     8   ar
    24     8     9   ar
    25     9    10   ar
    26    18    19   ar
    27    19    20   ar
    28    20    21    1
    29    20    22   ar
    30    22    12   ar
    31    22    16    1
    32    10     1   ar
    33    32    27   ar
    34    10     4   ar
    35    17    23    1
    36    21    24    1
    37    21    25    1
