@<TRIPOS>MOLECULE
*****
 36 39 0 0 0
SMALL
GASTEIGER

@<TRIPOS>ATOM
      1 S         143.4159  141.8322  165.8944 S.O2    1  UNL1        0.0736
      2 O         143.8228  143.0949  166.5944 O.2     1  UNL1       -0.1499
      3 O         143.0089  140.5695  165.1945 O.2     1  UNL1       -0.1499
      4 C         140.3952  141.0132  169.1278 C.ar    1  UNL1        0.0533
      5 C         140.2884  142.2594  168.3000 C.ar    1  UNL1        0.0161
      6 C         141.2953  142.5324  167.2222 C.ar    1  UNL1        0.0215
      7 C         142.4089  141.5591  166.9723 C.ar    1  UNL1        0.1253
      8 C         142.5157  140.3128  167.8001 C.ar    1  UNL1        0.0215
      9 C         141.5089  140.0399  168.8779 C.ar    1  UNL1        0.0161
     10 O         138.0449  139.2343  168.5693 O.2     1  UNL1       -0.2261
     11 C         138.2132  139.8507  169.9264 C.2     1  UNL1        0.4055
     12 N         139.3883  140.7401  170.2056 N.am    1  UNL1       -0.2499
     13 H         139.4987  141.1447  171.0963 H       1  UNL1        0.1582
     14 O         137.2063  139.5777  171.0042 O.3     1  UNL1       -0.4318
     15 C         136.2761  138.4073  170.8825 C.3     1  UNL1        0.2393
     16 C         136.0401  137.5111  172.0619 C.3     1  UNL1        0.1589
     17 C         135.0409  137.7397  173.1571 C.3     1  UNL1        0.0360
     18 C         135.1451  136.5989  174.1253 C.3     1  UNL1        0.0347
     19 C         136.2087  135.6651  173.6285 C.3     1  UNL1        0.1423
     20 O         136.7619  136.2289  172.3533 O.3     1  UNL1       -0.3524
     21 N         144.4227  142.1051  164.8166 N.pl3   1  UNL1       -0.2149
     22 H         145.3119  142.4565  165.0512 H       1  UNL1        0.1737
     23 C         144.0747  141.8428  163.3813 C.ar    1  UNL1        0.0679
     24 C         144.7679  140.7451  162.6301 C.ar    1  UNL1        0.0160
     25 C         144.4200  140.4827  161.1948 C.ar    1  UNL1        0.0013
     26 C         143.3788  141.3181  160.5107 C.ar    1  UNL1        0.0002
     27 C         142.6855  142.4159  161.2619 C.ar    1  UNL1        0.0045
     28 C         143.0334  142.6782  162.6972 C.ar    1  UNL1        0.0551
     29 C         142.3402  143.7760  163.4485 C.2     1  UNL1        0.2143
     30 O         143.0912  145.0196  163.8217 O.2     1  UNL1       -0.2849
     31 C         140.8960  143.6300  163.8265 C.ar    1  UNL1        0.1202
     32 C         140.1090  144.8312  164.2598 C.ar    1  UNL1        0.0224
     33 C         138.6648  144.6852  164.6379 C.ar    1  UNL1        0.0032
     34 C         138.0076  143.3380  164.5826 C.ar    1  UNL1        0.0207
     35 C         138.7945  142.1368  164.1493 C.ar    1  UNL1        0.0989
     36 N         140.2387  142.2827  163.7712 N.ar    1  UNL1       -0.2406
@<TRIPOS>BOND
     1    10    11    2
     2    11    12   am
     3    12     4    1
     4     4     5   ar
     5     5     6   ar
     6     6     7   ar
     7     7     1    1
     8     1     2    2
     9     1     3    2
    10     1    21    1
    11    21    23    1
    12    23    24   ar
    13    24    25   ar
    14    25    26   ar
    15    26    27   ar
    16    27    28   ar
    17    28    29    1
    18    29    30    2
    19    29    31    1
    20    31    32   ar
    21    32    33   ar
    22    33    34   ar
    23    34    35   ar
    24    35    36   ar
    25     7     8   ar
    26     8     9   ar
    27    11    14    1
    28    14    15    1
    29    15    16    1
    30    16    17    1
    31    17    18    1
    32    18    19    1
    33    19    20    1
    34     9     4   ar
    35    20    16    1
    36    28    23   ar
    37    36    31   ar
    38    12    13    1
    39    21    22    1
@<TRIPOS>MOLECULE
*****
 36 39 0 0 0
SMALL
GASTEIGER

@<TRIPOS>ATOM
      1 S         140.4572  138.7496  162.9322 S.O2    1  UNL1        0.0736
      2 O         140.8608  140.1780  163.1481 O.2     1  UNL1       -0.1499
      3 O         140.0536  137.3212  162.7163 O.2     1  UNL1       -0.1499
      4 C         138.3181  139.9253  159.1517 C.ar    1  UNL1        0.0533
      5 C         139.7778  139.5823  159.1118 C.ar    1  UNL1        0.0161
      6 C         140.4908  139.1905  160.3720 C.ar    1  UNL1        0.0215
      7 C         139.7441  139.1415  161.6720 C.ar    1  UNL1        0.1253
      8 C         138.2844  139.4845  161.7119 C.ar    1  UNL1        0.0215
      9 C         137.5714  139.8764  160.4517 C.ar    1  UNL1        0.0161
     10 O         138.2957  142.7929  158.2707 O.2     1  UNL1       -0.2261
     11 C         137.5938  141.7510  157.4510 C.2     1  UNL1        0.4055
     12 N         137.6051  140.3172  157.8915 N.am    1  UNL1       -0.2499
     13 H         137.1444  139.6334  157.3536 H       1  UNL1        0.1582
     14 O         136.8808  142.1429  156.1908 O.3     1  UNL1       -0.4318
     15 C         136.0526  141.1333  155.4527 C.3     1  UNL1        0.2393
     16 C         134.7394  140.6818  156.0198 C.3     1  UNL1        0.1589
     17 C         133.3812  141.0566  155.5052 C.3     1  UNL1        0.0360
     18 C         132.3562  140.3826  156.3684 C.3     1  UNL1        0.0347
     19 C         133.0810  139.5912  157.4165 C.3     1  UNL1        0.1423
     20 O         134.5538  139.7761  157.2010 O.3     1  UNL1       -0.3524
     21 N         141.1702  138.3577  164.1923 N.pl3   1  UNL1       -0.2149
     22 H         141.9477  137.7551  164.1509 H       1  UNL1        0.1737
     23 C         140.6987  138.8838  165.5155 C.ar    1  UNL1        0.0679
     24 C         139.2303  138.9629  165.8110 C.ar    1  UNL1        0.0160
     25 C         138.7588  139.4890  167.1342 C.ar    1  UNL1        0.0013
     26 C         139.7557  139.9360  168.1620 C.ar    1  UNL1        0.0002
     27 C         141.2242  139.8569  167.8665 C.ar    1  UNL1        0.0045
     28 C         141.6957  139.3308  166.5433 C.ar    1  UNL1        0.0551
     29 C         143.1642  139.2517  166.2478 C.2     1  UNL1        0.2143
     30 O         143.9837  138.1299  166.8135 O.2     1  UNL1       -0.2849
     31 C         143.8131  140.2943  165.3866 C.ar    1  UNL1        0.1202
     32 C         144.7305  139.8829  164.2735 C.ar    1  UNL1        0.0224
     33 C         145.3795  140.9256  163.4122 C.ar    1  UNL1        0.0032
     34 C         145.1110  142.3797  163.6642 C.ar    1  UNL1        0.0207
     35 C         144.1936  142.7911  164.7773 C.ar    1  UNL1        0.0989
     36 N         143.5447  141.7485  165.6385 N.ar    1  UNL1       -0.2406
@<TRIPOS>BOND
     1    10    11    2
     2    11    12   am
     3    12     4    1
     4     4     5   ar
     5     5     6   ar
     6     6     7   ar
     7     7     1    1
     8     1     2    2
     9     1     3    2
    10     1    21    1
    11    21    23    1
    12    23    24   ar
    13    24    25   ar
    14    25    26   ar
    15    26    27   ar
    16    27    28   ar
    17    28    29    1
    18    29    30    2
    19    29    31    1
    20    31    32   ar
    21    32    33   ar
    22    33    34   ar
    23    34    35   ar
    24    35    36   ar
    25     7     8   ar
    26     8     9   ar
    27    11    14    1
    28    14    15    1
    29    15    16    1
    30    16    17    1
    31    17    18    1
    32    18    19    1
    33    19    20    1
    34     9     4   ar
    35    20    16    1
    36    28    23   ar
    37    36    31   ar
    38    12    13    1
    39    21    22    1
@<TRIPOS>MOLECULE
*****
 36 39 0 0 0
SMALL
GASTEIGER

@<TRIPOS>ATOM
      1 S         141.2392  141.5746  163.1703 S.O2    1  UNL1        0.0736
      2 O         140.7073  142.6777  164.0365 O.2     1  UNL1       -0.1499
      3 O         141.7710  140.4716  162.3041 O.2     1  UNL1       -0.1499
      4 C         142.7898  139.4532  166.8234 C.ar    1  UNL1        0.0533
      5 C         142.4010  138.6658  165.6073 C.ar    1  UNL1        0.0161
      6 C         141.8842  139.3730  164.3896 C.ar    1  UNL1        0.0215
      7 C         141.7561  140.8675  164.3881 C.ar    1  UNL1        0.1253
      8 C         142.1448  141.6549  165.6041 C.ar    1  UNL1        0.0215
      9 C         142.6616  140.9477  166.8218 C.ar    1  UNL1        0.0161
     10 O         141.5058  139.9292  169.4926 O.2     1  UNL1       -0.2261
     11 C         142.6646  138.9841  169.3757 C.2     1  UNL1        0.4055
     12 N         143.3066  138.7460  168.0411 N.am    1  UNL1       -0.2499
     13 H         144.0673  138.1257  167.9644 H       1  UNL1        0.1582
     14 O         143.1815  138.2769  170.5935 O.3     1  UNL1       -0.4318
     15 C         143.6792  136.8659  170.4867 C.3     1  UNL1        0.2393
     16 C         144.7721  136.3855  171.3948 C.3     1  UNL1        0.1589
     17 C         144.8434  135.0397  172.0534 C.3     1  UNL1        0.0360
     18 C         146.1010  134.9889  172.8694 C.3     1  UNL1        0.0347
     19 C         146.8070  136.3034  172.7151 C.3     1  UNL1        0.1423
     20 O         145.9857  137.1665  171.8037 O.3     1  UNL1       -0.3524
     21 N         140.7223  142.2817  161.9526 N.pl3   1  UNL1       -0.2149
     22 H         140.8240  143.2574  161.8697 H       1  UNL1        0.1737
     23 C         140.0506  141.5022  160.8612 C.ar    1  UNL1        0.0679
     24 C         140.7193  141.3506  159.5271 C.ar    1  UNL1        0.0160
     25 C         140.0476  140.5711  158.4357 C.ar    1  UNL1        0.0013
     26 C         138.7072  139.9432  158.6784 C.ar    1  UNL1        0.0002
     27 C         138.0384  140.0947  160.0125 C.ar    1  UNL1        0.0045
     28 C         138.7101  140.8743  161.1039 C.ar    1  UNL1        0.0551
     29 C         138.0414  141.0259  162.4380 C.2     1  UNL1        0.2143
     30 O         137.1697  142.2161  162.7091 O.2     1  UNL1       -0.2849
     31 C         138.2445  139.9872  163.5010 C.ar    1  UNL1        0.1202
     32 C         138.0967  140.3556  164.9475 C.ar    1  UNL1        0.0224
     33 C         138.2997  139.3169  166.0105 C.ar    1  UNL1        0.0032
     34 C         138.6505  137.9099  165.6270 C.ar    1  UNL1        0.0207
     35 C         138.7983  137.5415  164.1805 C.ar    1  UNL1        0.0989
     36 N         138.5953  138.5801  163.1175 N.ar    1  UNL1       -0.2406
@<TRIPOS>BOND
     1    10    11    2
     2    11    12   am
     3    12     4    1
     4     4     5   ar
     5     5     6   ar
     6     6     7   ar
     7     7     1    1
     8     1     2    2
     9     1     3    2
    10     1    21    1
    11    21    23    1
    12    23    24   ar
    13    24    25   ar
    14    25    26   ar
    15    26    27   ar
    16    27    28   ar
    17    28    29    1
    18    29    30    2
    19    29    31    1
    20    31    32   ar
    21    32    33   ar
    22    33    34   ar
    23    34    35   ar
    24    35    36   ar
    25     7     8   ar
    26     8     9   ar
    27    11    14    1
    28    14    15    1
    29    15    16    1
    30    16    17    1
    31    17    18    1
    32    18    19    1
    33    19    20    1
    34     9     4   ar
    35    20    16    1
    36    28    23   ar
    37    36    31   ar
    38    12    13    1
    39    21    22    1
@<TRIPOS>MOLECULE
*****
 36 39 0 0 0
SMALL
GASTEIGER

@<TRIPOS>ATOM
      1 S         139.0643  142.5337  164.9170 S.O2    1  UNL1        0.0736
      2 O         139.3353  143.8819  165.5159 O.2     1  UNL1       -0.1499
      3 O         138.7932  141.1855  164.3181 O.2     1  UNL1       -0.1499
      4 C         140.9884  140.5652  168.4769 C.ar    1  UNL1        0.0533
      5 C         139.9416  139.8337  167.6901 C.ar    1  UNL1        0.0161
      6 C         139.3003  140.4898  166.5035 C.ar    1  UNL1        0.0215
      7 C         139.7057  141.8776  166.1037 C.ar    1  UNL1        0.1253
      8 C         140.7524  142.6091  166.8905 C.ar    1  UNL1        0.0215
      9 C         141.3938  141.9530  168.0771 C.ar    1  UNL1        0.0161
     10 O         143.2548  138.6395  168.0832 O.2     1  UNL1       -0.2261
     11 C         142.7630  138.9462  169.4667 C.2     1  UNL1        0.4055
     12 N         141.6298  139.9091  169.6636 N.am    1  UNL1       -0.2499
     13 H         141.3070  140.1104  170.5716 H       1  UNL1        0.1582
     14 O         143.4044  138.2901  170.6534 O.3     1  UNL1       -0.4318
     15 C         143.7446  136.8299  170.6101 C.3     1  UNL1        0.2393
     16 C         144.7878  136.2752  171.5342 C.3     1  UNL1        0.1589
     17 C         145.8985  137.0515  172.1776 C.3     1  UNL1        0.0360
     18 C         146.7007  136.1029  173.0182 C.3     1  UNL1        0.0347
     19 C         146.0858  134.7403  172.8943 C.3     1  UNL1        0.1423
     20 O         144.9037  134.8468  171.9772 O.3     1  UNL1       -0.3524
     21 N         138.4229  143.1898  163.7304 N.pl3   1  UNL1       -0.2149
     22 H         137.7374  143.8840  163.8625 H       1  UNL1        0.1737
     23 C         138.8259  142.7882  162.3424 C.ar    1  UNL1        0.0679
     24 C         137.9914  141.8073  161.5734 C.ar    1  UNL1        0.0160
     25 C         138.3945  141.4057  160.1855 C.ar    1  UNL1        0.0013
     26 C         139.6319  141.9851  159.5666 C.ar    1  UNL1        0.0002
     27 C         140.4664  142.9660  160.3357 C.ar    1  UNL1        0.0045
     28 C         140.0634  143.3676  161.7236 C.ar    1  UNL1        0.0551
     29 C         140.8979  144.3485  162.4926 C.2     1  UNL1        0.2143
     30 O         140.5695  145.8113  162.4460 O.2     1  UNL1       -0.2849
     31 C         142.0607  143.8665  163.3084 C.ar    1  UNL1        0.1202
     32 C         142.3513  142.3981  163.4056 C.ar    1  UNL1        0.0224
     33 C         143.5143  141.9162  164.2214 C.ar    1  UNL1        0.0032
     34 C         144.3864  142.9026  164.9399 C.ar    1  UNL1        0.0207
     35 C         144.0958  144.3709  164.8427 C.ar    1  UNL1        0.0989
     36 N         142.9330  144.8529  164.0269 N.ar    1  UNL1       -0.2406
@<TRIPOS>BOND
     1    10    11    2
     2    11    12   am
     3    12     4    1
     4     4     5   ar
     5     5     6   ar
     6     6     7   ar
     7     7     1    1
     8     1     2    2
     9     1     3    2
    10     1    21    1
    11    21    23    1
    12    23    24   ar
    13    24    25   ar
    14    25    26   ar
    15    26    27   ar
    16    27    28   ar
    17    28    29    1
    18    29    30    2
    19    29    31    1
    20    31    32   ar
    21    32    33   ar
    22    33    34   ar
    23    34    35   ar
    24    35    36   ar
    25     7     8   ar
    26     8     9   ar
    27    11    14    1
    28    14    15    1
    29    15    16    1
    30    16    17    1
    31    17    18    1
    32    18    19    1
    33    19    20    1
    34     9     4   ar
    35    20    16    1
    36    28    23   ar
    37    36    31   ar
    38    12    13    1
    39    21    22    1
@<TRIPOS>MOLECULE
*****
 36 39 0 0 0
SMALL
GASTEIGER

@<TRIPOS>ATOM
      1 S         139.8522  142.2715  165.3709 S.O2    1  UNL1        0.0736
      2 O         139.7823  143.5967  166.0700 O.2     1  UNL1       -0.1499
      3 O         139.9222  140.9462  164.6719 O.2     1  UNL1       -0.1499
      4 C         139.8038  144.3687  161.3899 C.ar    1  UNL1        0.0533
      5 C         139.0975  144.9755  162.5658 C.ar    1  UNL1        0.0161
      6 C         139.1137  144.2764  163.8928 C.ar    1  UNL1        0.0215
      7 C         139.8361  142.9705  164.0439 C.ar    1  UNL1        0.1253
      8 C         140.5424  142.3637  162.8679 C.ar    1  UNL1        0.0215
      9 C         140.5262  143.0628  161.5409 C.ar    1  UNL1        0.0161
     10 O         142.3431  144.6666  159.8204 O.2     1  UNL1       -0.2261
     11 C         141.0573  145.2167  159.2780 C.2     1  UNL1        0.4055
     12 N         139.7877  145.0678  160.0628 N.am    1  UNL1       -0.2499
     13 H         138.9438  145.4288  159.7068 H       1  UNL1        0.1582
     14 O         141.0412  145.9158  157.9510 O.3     1  UNL1       -0.4318
     15 C         139.7539  146.0592  157.1944 C.3     1  UNL1        0.2393
     16 C         139.2542  147.4220  156.8161 C.3     1  UNL1        0.1589
     17 C         139.2991  148.0282  155.4448 C.3     1  UNL1        0.0360
     18 C         138.6946  149.3987  155.5238 C.3     1  UNL1        0.0347
     19 C         138.2760  149.6395  156.9440 C.3     1  UNL1        0.1423
     20 O         138.6219  148.4178  157.7426 O.3     1  UNL1       -0.3524
     21 N         139.8683  141.5724  166.6979 N.pl3   1  UNL1       -0.2149
     22 H         139.2619  140.8145  166.8625 H       1  UNL1        0.1737
     23 C         140.8085  142.0279  167.7743 C.ar    1  UNL1        0.0679
     24 C         140.3064  142.8936  168.8916 C.ar    1  UNL1        0.0160
     25 C         141.2466  143.3492  169.9680 C.ar    1  UNL1        0.0013
     26 C         142.6888  142.9391  169.9270 C.ar    1  UNL1        0.0002
     27 C         143.1910  142.0734  168.8097 C.ar    1  UNL1        0.0045
     28 C         142.2508  141.6178  167.7333 C.ar    1  UNL1        0.0551
     29 C         142.7529  140.7521  166.6160 C.2     1  UNL1        0.2143
     30 O         142.5669  139.2650  166.6777 O.2     1  UNL1       -0.2849
     31 C         143.4410  141.3736  165.4369 C.ar    1  UNL1        0.1202
     32 C         143.5155  142.8666  165.3132 C.ar    1  UNL1        0.0224
     33 C         144.2036  143.4881  164.1340 C.ar    1  UNL1        0.0032
     34 C         144.8172  142.6165  163.0787 C.ar    1  UNL1        0.0207
     35 C         144.7427  141.1235  163.2024 C.ar    1  UNL1        0.0989
     36 N         144.0546  140.5020  164.3815 N.ar    1  UNL1       -0.2406
@<TRIPOS>BOND
     1    10    11    2
     2    11    12   am
     3    12     4    1
     4     4     5   ar
     5     5     6   ar
     6     6     7   ar
     7     7     1    1
     8     1     2    2
     9     1     3    2
    10     1    21    1
    11    21    23    1
    12    23    24   ar
    13    24    25   ar
    14    25    26   ar
    15    26    27   ar
    16    27    28   ar
    17    28    29    1
    18    29    30    2
    19    29    31    1
    20    31    32   ar
    21    32    33   ar
    22    33    34   ar
    23    34    35   ar
    24    35    36   ar
    25     7     8   ar
    26     8     9   ar
    27    11    14    1
    28    14    15    1
    29    15    16    1
    30    16    17    1
    31    17    18    1
    32    18    19    1
    33    19    20    1
    34     9     4   ar
    35    20    16    1
    36    28    23   ar
    37    36    31   ar
    38    12    13    1
    39    21    22    1
@<TRIPOS>MOLECULE
*****
 36 39 0 0 0
SMALL
GASTEIGER

@<TRIPOS>ATOM
      1 S         141.3334  143.0867  163.4928 S.O2    1  UNL1        0.0736
      2 O         140.3363  141.9831  163.2982 O.2     1  UNL1       -0.1499
      3 O         142.3305  144.1902  163.6874 O.2     1  UNL1       -0.1499
      4 C         140.3492  144.6965  159.4075 C.ar    1  UNL1        0.0533
      5 C         140.7261  143.2543  159.5745 C.ar    1  UNL1        0.0161
      6 C         141.0541  142.7177  160.9362 C.ar    1  UNL1        0.0215
      7 C         141.0053  143.6233  162.1310 C.ar    1  UNL1        0.1253
      8 C         140.6284  145.0656  161.9640 C.ar    1  UNL1        0.0215
      9 C         140.3004  145.6022  160.6023 C.ar    1  UNL1        0.0161
     10 O         142.4210  146.2094  157.8522 O.2     1  UNL1       -0.2261
     11 C         141.0570  145.9896  157.2681 C.2     1  UNL1        0.4055
     12 N         140.0211  145.2332  158.0457 N.am    1  UNL1       -0.2499
     13 H         139.1258  145.0890  157.6623 H       1  UNL1        0.1582
     14 O         140.7289  146.5263  155.9063 O.3     1  UNL1       -0.4318
     15 C         139.3648  147.0852  155.6291 C.3     1  UNL1        0.2393
     16 C         139.2011  148.5430  155.3159 C.3     1  UNL1        0.1589
     17 C         138.4613  149.5464  156.1501 C.3     1  UNL1        0.0360
     18 C         138.5514  150.8768  155.4633 C.3     1  UNL1        0.0347
     19 C         139.3469  150.6956  154.2045 C.3     1  UNL1        0.1423
     20 O         139.7484  149.2533  154.1134 O.3     1  UNL1       -0.3524
     21 N         141.6615  142.5501  164.8545 N.pl3   1  UNL1       -0.2149
     22 H         141.3694  143.0368  165.6589 H       1  UNL1        0.1737
     23 C         142.4346  141.2719  164.9907 C.ar    1  UNL1        0.0679
     24 C         143.8220  141.1711  164.4295 C.ar    1  UNL1        0.0160
     25 C         144.5951  139.8929  164.5657 C.ar    1  UNL1        0.0013
     26 C         143.9809  138.7156  165.2631 C.ar    1  UNL1        0.0002
     27 C         142.5935  138.8163  165.8244 C.ar    1  UNL1        0.0045
     28 C         141.8203  140.0945  165.6882 C.ar    1  UNL1        0.0551
     29 C         140.4330  140.1952  166.2494 C.2     1  UNL1        0.2143
     30 O         139.2704  139.6427  165.4792 O.2     1  UNL1       -0.2849
     31 C         140.2082  140.8485  167.5807 C.ar    1  UNL1        0.1202
     32 C         139.4954  140.1042  168.6707 C.ar    1  UNL1        0.0224
     33 C         139.2706  140.7576  170.0021 C.ar    1  UNL1        0.0032
     34 C         139.7585  142.1553  170.2435 C.ar    1  UNL1        0.0207
     35 C         140.4713  142.8996  169.1536 C.ar    1  UNL1        0.0989
     36 N         140.6961  142.2463  167.8222 N.ar    1  UNL1       -0.2406
@<TRIPOS>BOND
     1    10    11    2
     2    11    12   am
     3    12     4    1
     4     4     5   ar
     5     5     6   ar
     6     6     7   ar
     7     7     1    1
     8     1     2    2
     9     1     3    2
    10     1    21    1
    11    21    23    1
    12    23    24   ar
    13    24    25   ar
    14    25    26   ar
    15    26    27   ar
    16    27    28   ar
    17    28    29    1
    18    29    30    2
    19    29    31    1
    20    31    32   ar
    21    32    33   ar
    22    33    34   ar
    23    34    35   ar
    24    35    36   ar
    25     7     8   ar
    26     8     9   ar
    27    11    14    1
    28    14    15    1
    29    15    16    1
    30    16    17    1
    31    17    18    1
    32    18    19    1
    33    19    20    1
    34     9     4   ar
    35    20    16    1
    36    28    23   ar
    37    36    31   ar
    38    12    13    1
    39    21    22    1
@<TRIPOS>MOLECULE
*****
 36 39 0 0 0
SMALL
GASTEIGER

@<TRIPOS>ATOM
      1 S         138.5652  142.6224  161.9920 S.O2    1  UNL1        0.0736
      2 O         139.3202  141.4617  161.4153 O.2     1  UNL1       -0.1499
      3 O         137.8103  143.7831  162.5688 O.2     1  UNL1       -0.1499
      4 C         139.9416  141.4675  166.1178 C.ar    1  UNL1        0.0533
      5 C         139.8622  140.4313  165.0362 C.ar    1  UNL1        0.0161
      6 C         139.4034  140.8163  163.6610 C.ar    1  UNL1        0.0215
      7 C         139.0240  142.2375  163.3674 C.ar    1  UNL1        0.1253
      8 C         139.1035  143.2737  164.4489 C.ar    1  UNL1        0.0215
      9 C         139.5623  142.8888  165.8241 C.ar    1  UNL1        0.0161
     10 O         138.5426  139.2699  167.6055 O.2     1  UNL1       -0.2261
     11 C         139.7009  139.9838  168.2369 C.2     1  UNL1        0.4055
     12 N         140.4004  141.0826  167.4931 N.am    1  UNL1       -0.2499
     13 H         141.1606  141.5511  167.9075 H       1  UNL1        0.1582
     14 O         140.1597  139.5988  169.6122 O.3     1  UNL1       -0.4318
     15 C         140.4432  140.6608  170.6329 C.3     1  UNL1        0.2393
     16 C         141.6731  141.5106  170.5092 C.3     1  UNL1        0.1589
     17 C         142.9573  141.1116  169.8447 C.3     1  UNL1        0.0360
     18 C         143.9126  142.2630  169.9531 C.3     1  UNL1        0.0347
     19 C         143.2187  143.3735  170.6848 C.3     1  UNL1        0.1423
     20 O         141.8347  142.9085  171.0285 O.3     1  UNL1       -0.3524
     21 N         138.1064  143.0074  160.6168 N.pl3   1  UNL1       -0.2149
     22 H         137.1679  143.2629  160.4646 H       1  UNL1        0.1737
     23 C         139.0775  143.0031  159.4736 C.ar    1  UNL1        0.0679
     24 C         138.9141  142.0179  158.3544 C.ar    1  UNL1        0.0160
     25 C         139.8852  142.0136  157.2112 C.ar    1  UNL1        0.0013
     26 C         141.0197  142.9946  157.1872 C.ar    1  UNL1        0.0002
     27 C         141.1832  143.9799  158.3064 C.ar    1  UNL1        0.0045
     28 C         140.2121  143.9841  159.4496 C.ar    1  UNL1        0.0551
     29 C         140.3755  144.9693  160.5688 C.2     1  UNL1        0.2143
     30 O         139.4243  146.1219  160.6983 O.2     1  UNL1       -0.2849
     31 C         141.4901  144.8020  161.5585 C.ar    1  UNL1        0.1202
     32 C         141.3760  145.4075  162.9261 C.ar    1  UNL1        0.0224
     33 C         142.4907  145.2401  163.9158 C.ar    1  UNL1        0.0032
     34 C         143.7194  144.4672  163.5379 C.ar    1  UNL1        0.0207
     35 C         143.8335  143.8617  162.1703 C.ar    1  UNL1        0.0989
     36 N         142.7189  144.0291  161.1806 N.ar    1  UNL1       -0.2406
@<TRIPOS>BOND
     1    10    11    2
     2    11    12   am
     3    12     4    1
     4     4     5   ar
     5     5     6   ar
     6     6     7   ar
     7     7     1    1
     8     1     2    2
     9     1     3    2
    10     1    21    1
    11    21    23    1
    12    23    24   ar
    13    24    25   ar
    14    25    26   ar
    15    26    27   ar
    16    27    28   ar
    17    28    29    1
    18    29    30    2
    19    29    31    1
    20    31    32   ar
    21    32    33   ar
    22    33    34   ar
    23    34    35   ar
    24    35    36   ar
    25     7     8   ar
    26     8     9   ar
    27    11    14    1
    28    14    15    1
    29    15    16    1
    30    16    17    1
    31    17    18    1
    32    18    19    1
    33    19    20    1
    34     9     4   ar
    35    20    16    1
    36    28    23   ar
    37    36    31   ar
    38    12    13    1
    39    21    22    1
@<TRIPOS>MOLECULE
*****
 36 39 0 0 0
SMALL
GASTEIGER

@<TRIPOS>ATOM
      1 S         142.6121  144.0047  162.3046 S.O2    1  UNL1        0.0736
      2 O         142.2693  145.2395  163.0842 O.2     1  UNL1       -0.1499
      3 O         142.9549  142.7699  161.5251 O.2     1  UNL1       -0.1499
      4 C         143.0176  141.6931  166.1442 C.ar    1  UNL1        0.0533
      5 C         141.8163  142.5616  165.9149 C.ar    1  UNL1        0.0161
      6 C         141.6812  143.3321  164.6351 C.ar    1  UNL1        0.0215
      7 C         142.7473  143.2341  163.5845 C.ar    1  UNL1        0.1253
      8 C         143.9485  142.3656  163.8137 C.ar    1  UNL1        0.0215
      9 C         144.0837  141.5951  165.0935 C.ar    1  UNL1        0.0161
     10 O         142.3716  138.7641  166.2071 O.2     1  UNL1       -0.2261
     11 C         142.8298  139.4581  167.4555 C.2     1  UNL1        0.4055
     12 N         143.1528  140.9225  167.4240 N.am    1  UNL1       -0.2499
     13 H         143.4535  141.3780  168.2434 H       1  UNL1        0.1582
     14 O         142.9650  138.6875  168.7354 O.3     1  UNL1       -0.4318
     15 C         142.5038  139.2933  170.0278 C.3     1  UNL1        0.2393
     16 C         141.2328  140.0886  170.0719 C.3     1  UNL1        0.1589
     17 C         141.1262  141.5690  170.2887 C.3     1  UNL1        0.0360
     18 C         139.6728  141.9386  170.2577 C.3     1  UNL1        0.0347
     19 C         138.8811  140.6864  170.0218 C.3     1  UNL1        0.1423
     20 O         139.8453  139.5431  169.9070 O.3     1  UNL1       -0.3524
     21 N         142.4769  144.7752  161.0248 N.pl3   1  UNL1       -0.2149
     22 H         142.9059  145.6566  160.9332 H       1  UNL1        0.1737
     23 C         141.6882  144.2028  159.8845 C.ar    1  UNL1        0.0679
     24 C         142.3959  143.6941  158.6637 C.ar    1  UNL1        0.0160
     25 C         141.6072  143.1217  157.5234 C.ar    1  UNL1        0.0013
     26 C         140.1107  143.0580  157.6039 C.ar    1  UNL1        0.0002
     27 C         139.4029  143.5667  158.8247 C.ar    1  UNL1        0.0045
     28 C         140.1917  144.1391  159.9650 C.ar    1  UNL1        0.0551
     29 C         139.4839  144.6478  161.1858 C.2     1  UNL1        0.2143
     30 O         139.2575  146.1200  161.3626 O.2     1  UNL1       -0.2849
     31 C         139.0027  143.6842  162.2297 C.ar    1  UNL1        0.1202
     32 C         138.2003  144.1808  163.3958 C.ar    1  UNL1        0.0224
     33 C         137.7190  143.2171  164.4398 C.ar    1  UNL1        0.0032
     34 C         138.0401  141.7570  164.3177 C.ar    1  UNL1        0.0207
     35 C         138.8424  141.2605  163.1516 C.ar    1  UNL1        0.0989
     36 N         139.3237  142.2240  162.1077 N.ar    1  UNL1       -0.2406
@<TRIPOS>BOND
     1    10    11    2
     2    11    12   am
     3    12     4    1
     4     4     5   ar
     5     5     6   ar
     6     6     7   ar
     7     7     1    1
     8     1     2    2
     9     1     3    2
    10     1    21    1
    11    21    23    1
    12    23    24   ar
    13    24    25   ar
    14    25    26   ar
    15    26    27   ar
    16    27    28   ar
    17    28    29    1
    18    29    30    2
    19    29    31    1
    20    31    32   ar
    21    32    33   ar
    22    33    34   ar
    23    34    35   ar
    24    35    36   ar
    25     7     8   ar
    26     8     9   ar
    27    11    14    1
    28    14    15    1
    29    15    16    1
    30    16    17    1
    31    17    18    1
    32    18    19    1
    33    19    20    1
    34     9     4   ar
    35    20    16    1
    36    28    23   ar
    37    36    31   ar
    38    12    13    1
    39    21    22    1
@<TRIPOS>MOLECULE
*****
 36 39 0 0 0
SMALL
GASTEIGER

@<TRIPOS>ATOM
      1 S         142.9049  141.5478  165.1248 S.O2    1  UNL1        0.0736
      2 O         143.3847  142.8556  165.6808 O.2     1  UNL1       -0.1499
      3 O         142.4251  140.2399  164.5687 O.2     1  UNL1       -0.1499
      4 C         142.8443  143.3271  160.9919 C.ar    1  UNL1        0.0533
      5 C         143.1490  144.1942  162.1774 C.ar    1  UNL1        0.0161
      6 C         143.1691  143.6011  163.5550 C.ar    1  UNL1        0.0215
      7 C         142.8847  142.1409  163.7471 C.ar    1  UNL1        0.1253
      8 C         142.5801  141.2738  162.5616 C.ar    1  UNL1        0.0215
      9 C         142.5599  141.8669  161.1841 C.ar    1  UNL1        0.0161
     10 O         140.4549  144.8864  160.0649 O.2     1  UNL1       -0.2261
     11 C         141.6294  144.6999  159.1508 C.2     1  UNL1        0.4055
     12 N         142.8241  143.9202  159.6143 N.am    1  UNL1       -0.2499
     13 H         143.5950  143.7978  159.0143 H       1  UNL1        0.1582
     14 O         141.6092  145.2930  157.7731 O.3     1  UNL1       -0.4318
     15 C         140.4359  146.1142  157.3273 C.3     1  UNL1        0.2393
     16 C         139.3630  145.4927  156.4831 C.3     1  UNL1        0.1589
     17 C         138.5513  146.1920  155.4333 C.3     1  UNL1        0.0360
     18 C         137.6000  145.1944  154.8419 C.3     1  UNL1        0.0347
     19 C         137.8239  143.8784  155.5262 C.3     1  UNL1        0.1423
     20 O         138.9135  144.0628  156.5405 O.3     1  UNL1       -0.3524
     21 N         142.9251  140.9547  166.5023 N.pl3   1  UNL1       -0.2149
     22 H         143.3312  140.0703  166.6516 H       1  UNL1        0.1737
     23 C         142.3266  141.7089  167.6525 C.ar    1  UNL1        0.0679
     24 C         143.2090  142.2319  168.7469 C.ar    1  UNL1        0.0160
     25 C         142.6105  142.9862  169.8970 C.ar    1  UNL1        0.0013
     26 C         141.1295  143.2174  169.9528 C.ar    1  UNL1        0.0002
     27 C         140.2470  142.6944  168.8584 C.ar    1  UNL1        0.0045
     28 C         140.8455  141.9402  167.7083 C.ar    1  UNL1        0.0551
     29 C         139.9630  141.4172  166.6139 C.2     1  UNL1        0.2143
     30 O         139.6769  139.9478  166.5189 O.2     1  UNL1       -0.2849
     31 C         139.3667  142.3635  165.6145 C.ar    1  UNL1        0.1202
     32 C         139.9001  143.7603  165.4933 C.ar    1  UNL1        0.0224
     33 C         139.3037  144.7067  164.4939 C.ar    1  UNL1        0.0032
     34 C         138.1740  144.2563  163.6158 C.ar    1  UNL1        0.0207
     35 C         137.6407  142.8596  163.7371 C.ar    1  UNL1        0.0989
     36 N         138.2370  141.9132  164.7364 N.ar    1  UNL1       -0.2406
@<TRIPOS>BOND
     1    10    11    2
     2    11    12   am
     3    12     4    1
     4     4     5   ar
     5     5     6   ar
     6     6     7   ar
     7     7     1    1
     8     1     2    2
     9     1     3    2
    10     1    21    1
    11    21    23    1
    12    23    24   ar
    13    24    25   ar
    14    25    26   ar
    15    26    27   ar
    16    27    28   ar
    17    28    29    1
    18    29    30    2
    19    29    31    1
    20    31    32   ar
    21    32    33   ar
    22    33    34   ar
    23    34    35   ar
    24    35    36   ar
    25     7     8   ar
    26     8     9   ar
    27    11    14    1
    28    14    15    1
    29    15    16    1
    30    16    17    1
    31    17    18    1
    32    18    19    1
    33    19    20    1
    34     9     4   ar
    35    20    16    1
    36    28    23   ar
    37    36    31   ar
    38    12    13    1
    39    21    22    1
