@<TRIPOS>MOLECULE
*****
 36 41 0 0 0
SMALL
GASTEIGER

@<TRIPOS>ATOM
      1 S         140.2894  144.3652  158.9953 S.3     1  UNL1       -0.0742
      2 C         139.7103  141.0521  160.9327 C.ar    1  UNL1        0.1669
      3 N         138.2995  141.4596  160.6272 N.ar    1  UNL1       -0.1282
      4 N         138.3446  142.7503  159.8642 N.ar    1  UNL1       -0.1221
      5 C         139.7834  143.1405  159.6982 C.ar    1  UNL1        0.1933
      6 N         140.6275  142.0910  160.3585 N.ar    1  UNL1       -0.2884
      7 C         142.1256  142.0819  160.4319 C.3     1  UNL1        0.1340
      8 C         137.8449  138.6867  167.1112 C.3     1  UNL1        0.0521
      9 C         138.4162  138.9705  165.7537 C.ar    1  UNL1        0.0593
     10 C         137.9962  140.2008  165.0054 C.ar    1  UNL1        0.0147
     11 C         138.5676  140.4846  163.6478 C.ar    1  UNL1        0.0028
     12 C         139.5590  139.5380  163.0385 C.ar    1  UNL1        0.0206
     13 C         140.1303  139.8218  161.6810 C.ar    1  UNL1        0.0374
     14 C         141.1217  138.8753  161.0716 C.ar    1  UNL1        0.0031
     15 C         141.5416  137.6450  161.8199 C.ar    1  UNL1        0.0016
     16 C         140.9703  137.3612  163.1775 C.ar    1  UNL1        0.0191
     17 C         139.9789  138.3077  163.7868 C.ar    1  UNL1        0.0810
     18 N         139.4076  138.0239  165.1444 N.ar    1  UNL1       -0.2497
     19 C         140.7008  145.5696  159.7893 C.3     1  UNL1        0.0824
     20 C         140.0115  145.8860  161.0834 C.3     1  UNL1        0.0843
     21 N         140.3688  145.1290  162.3281 N.3     1  UNL1       -0.2713
     22 C         139.2231  144.7905  163.2353 C.3     1  UNL1        0.0768
     23 C         139.2502  144.0500  164.5396 C.3     1  UNL1        0.0434
     24 C         140.4294  143.4651  165.2586 C.ar    1  UNL1       -0.0233
     25 C         140.0170  142.8040  166.5404 C.ar    1  UNL1        0.0178
     26 C         141.0481  142.1540  167.4146 C.ar    1  UNL1        0.1179
     27 N         140.9418  141.4306  168.7243 N.ar    1  UNL1       -0.2121
     28 C         142.3196  140.9947  169.1263 C.ar    1  UNL1        0.2062
     29 C         142.6768  140.2377  170.3711 C.3     1  UNL1        0.0950
     30 O         143.2775  141.4486  168.0650 O.2     1  UNL1       -0.4387
     31 C         142.4917  142.1651  167.0072 C.ar    1  UNL1        0.1600
     32 C         142.9041  142.8263  165.7254 C.ar    1  UNL1        0.0101
     33 C         144.3476  142.8374  165.3180 C.3     1  UNL1        0.0339
     34 C         141.8730  143.4762  164.8512 C.ar    1  UNL1       -0.0256
     35 C         142.4938  144.0750  163.6240 C.3     1  UNL1        0.0431
     36 C         141.8243  144.8106  162.5011 C.3     1  UNL1        0.0768
@<TRIPOS>BOND
     1     8     9    1
     2     9    10   ar
     3    10    11   ar
     4    11    12   ar
     5    12    13   ar
     6    13     2    1
     7     2     3   ar
     8     3     4   ar
     9     4     5   ar
    10     5     1    1
    11     1    19    1
    12    19    20    1
    13    20    21    1
    14    21    22    1
    15    22    23    1
    16    23    24    1
    17    24    25   ar
    18    25    26   ar
    19    26    27   ar
    20    27    28   ar
    21    28    29    1
    22    28    30   ar
    23    30    31   ar
    24    31    32   ar
    25    32    33    1
    26    32    34   ar
    27    34    35    1
    28    35    36    1
    29     5     6   ar
    30     6     7    1
    31    13    14   ar
    32    14    15   ar
    33    15    16   ar
    34    16    17   ar
    35    17    18   ar
    36    18     9   ar
    37    17    12   ar
    38     6     2   ar
    39    36    21    1
    40    34    24   ar
    41    31    26   ar
@<TRIPOS>MOLECULE
*****
 36 41 0 0 0
SMALL
GASTEIGER

@<TRIPOS>ATOM
      1 S         140.0001  144.3286  159.2369 S.3     1  UNL1       -0.0742
      2 C         140.5034  140.8733  160.9320 C.ar    1  UNL1        0.1669
      3 N         141.7742  140.9979  160.1449 N.ar    1  UNL1       -0.1282
      4 N         141.7405  142.3074  159.4142 N.ar    1  UNL1       -0.1221
      5 C         140.4487  142.9922  159.7495 C.ar    1  UNL1        0.1933
      6 N         139.6841  142.1058  160.6876 N.ar    1  UNL1       -0.2884
      7 C         138.3369  142.4003  161.2777 C.3     1  UNL1        0.1340
      8 C         143.6488  138.1307  166.3941 C.3     1  UNL1        0.0521
      9 C         142.7664  138.5278  165.2479 C.ar    1  UNL1        0.0593
     10 C         143.1506  139.6822  164.3705 C.ar    1  UNL1        0.0147
     11 C         142.2681  140.0792  163.2243 C.ar    1  UNL1        0.0028
     12 C         141.0016  139.3218  162.9554 C.ar    1  UNL1        0.0206
     13 C         140.1193  139.7188  161.8093 C.ar    1  UNL1        0.0374
     14 C         138.8527  138.9615  161.5404 C.ar    1  UNL1        0.0031
     15 C         138.4686  137.8071  162.4178 C.ar    1  UNL1        0.0016
     16 C         139.3510  137.4100  163.5640 C.ar    1  UNL1        0.0191
     17 C         140.6175  138.1674  163.8328 C.ar    1  UNL1        0.0810
     18 N         141.4999  137.7704  164.9790 N.ar    1  UNL1       -0.2497
     19 C         140.5082  145.5865  159.8771 C.3     1  UNL1        0.0824
     20 C         139.9905  146.0060  161.2209 C.3     1  UNL1        0.0843
     21 N         140.3659  145.2264  162.4461 N.3     1  UNL1       -0.2713
     22 C         139.2341  144.8745  163.3656 C.3     1  UNL1        0.0768
     23 C         139.2804  144.1110  164.6560 C.3     1  UNL1        0.0434
     24 C         140.4696  143.5109  165.3455 C.ar    1  UNL1       -0.0233
     25 C         140.0762  142.8281  166.6219 C.ar    1  UNL1        0.0178
     26 C         141.1196  142.1604  167.4677 C.ar    1  UNL1        0.1179
     27 N         141.0326  141.4143  168.7660 N.ar    1  UNL1       -0.2121
     28 C         142.4156  140.9682  169.1379 C.ar    1  UNL1        0.2062
     29 C         142.7909  140.1885  170.3632 C.3     1  UNL1        0.0950
     30 O         143.3574  141.4387  168.0695 O.2     1  UNL1       -0.4387
     31 C         142.5565  142.1755  167.0373 C.ar    1  UNL1        0.1600
     32 C         142.9499  142.8583  165.7609 C.ar    1  UNL1        0.0101
     33 C         144.3866  142.8734  165.3304 C.3     1  UNL1        0.0339
     34 C         141.9064  143.5259  164.9150 C.ar    1  UNL1       -0.0256
     35 C         142.5088  144.1449  163.6887 C.3     1  UNL1        0.0431
     36 C         141.8232  144.9017  162.5899 C.3     1  UNL1        0.0768
@<TRIPOS>BOND
     1     8     9    1
     2     9    10   ar
     3    10    11   ar
     4    11    12   ar
     5    12    13   ar
     6    13     2    1
     7     2     3   ar
     8     3     4   ar
     9     4     5   ar
    10     5     1    1
    11     1    19    1
    12    19    20    1
    13    20    21    1
    14    21    22    1
    15    22    23    1
    16    23    24    1
    17    24    25   ar
    18    25    26   ar
    19    26    27   ar
    20    27    28   ar
    21    28    29    1
    22    28    30   ar
    23    30    31   ar
    24    31    32   ar
    25    32    33    1
    26    32    34   ar
    27    34    35    1
    28    35    36    1
    29     5     6   ar
    30     6     7    1
    31    13    14   ar
    32    14    15   ar
    33    15    16   ar
    34    16    17   ar
    35    17    18   ar
    36    18     9   ar
    37    17    12   ar
    38     6     2   ar
    39    36    21    1
    40    34    24   ar
    41    31    26   ar
@<TRIPOS>MOLECULE
*****
 36 41 0 0 0
SMALL
GASTEIGER

@<TRIPOS>ATOM
      1 S         142.3168  139.6133  169.0960 S.3     1  UNL1       -0.0742
      2 C         141.6422  138.6931  165.3861 C.ar    1  UNL1        0.1669
      3 N         143.0880  138.3167  165.5198 N.ar    1  UNL1       -0.1282
      4 N         143.5168  138.6156  166.9258 N.ar    1  UNL1       -0.1221
      5 C         142.3358  139.1767  167.6611 C.ar    1  UNL1        0.1933
      6 N         141.1773  139.2246  166.7095 N.ar    1  UNL1       -0.2884
      7 C         139.7964  139.7175  167.0257 C.3     1  UNL1        0.1340
      8 C         142.4337  141.4033  159.1189 C.3     1  UNL1        0.0521
      9 C         142.0273  140.6928  160.3758 C.ar    1  UNL1        0.0593
     10 C         142.8617  140.8247  161.6153 C.ar    1  UNL1        0.0147
     11 C         142.4552  140.1141  162.8723 C.ar    1  UNL1        0.0028
     12 C         141.2142  139.2717  162.8897 C.ar    1  UNL1        0.0206
     13 C         140.8077  138.5612  164.1466 C.ar    1  UNL1        0.0374
     14 C         139.5668  137.7187  164.1641 C.ar    1  UNL1        0.0031
     15 C         138.7324  137.5868  162.9246 C.ar    1  UNL1        0.0016
     16 C         139.1389  138.2973  161.6677 C.ar    1  UNL1        0.0191
     17 C         140.3798  139.1398  161.6502 C.ar    1  UNL1        0.0810
     18 N         140.7863  139.8503  160.3933 N.ar    1  UNL1       -0.2497
     19 C         142.1153  141.0601  169.4372 C.3     1  UNL1        0.0824
     20 C         142.9443  142.1122  168.7621 C.3     1  UNL1        0.0843
     21 N         142.5866  142.5777  167.3818 N.3     1  UNL1       -0.2713
     22 C         141.1231  142.7797  167.1220 C.3     1  UNL1        0.0768
     23 C         140.4512  143.2335  165.8599 C.3     1  UNL1        0.0434
     24 C         141.0768  143.5973  164.5461 C.ar    1  UNL1       -0.0233
     25 C         140.0410  144.0005  163.5388 C.ar    1  UNL1        0.0178
     26 C         140.4572  144.4036  162.1553 C.ar    1  UNL1        0.1179
     27 N         139.6683  144.8462  160.9588 N.ar    1  UNL1       -0.2121
     28 C         140.6328  145.1198  159.8429 C.ar    1  UNL1        0.2062
     29 C         140.2750  145.5852  158.4626 C.3     1  UNL1        0.0950
     30 O         142.0177  144.8461  160.3498 O.2     1  UNL1       -0.4387
     31 C         141.9092  144.4035  161.7789 C.ar    1  UNL1        0.1600
     32 C         142.9451  144.0004  162.7862 C.ar    1  UNL1        0.0101
     33 C         144.3970  144.0003  162.4098 C.3     1  UNL1        0.0339
     34 C         142.5289  143.5973  164.1697 C.ar    1  UNL1       -0.0256
     35 C         143.7139  143.2334  165.0143 C.3     1  UNL1        0.0431
     36 C         143.7395  142.7796  166.4438 C.3     1  UNL1        0.0768
@<TRIPOS>BOND
     1     8     9    1
     2     9    10   ar
     3    10    11   ar
     4    11    12   ar
     5    12    13   ar
     6    13     2    1
     7     2     3   ar
     8     3     4   ar
     9     4     5   ar
    10     5     1    1
    11     1    19    1
    12    19    20    1
    13    20    21    1
    14    21    22    1
    15    22    23    1
    16    23    24    1
    17    24    25   ar
    18    25    26   ar
    19    26    27   ar
    20    27    28   ar
    21    28    29    1
    22    28    30   ar
    23    30    31   ar
    24    31    32   ar
    25    32    33    1
    26    32    34   ar
    27    34    35    1
    28    35    36    1
    29     5     6   ar
    30     6     7    1
    31    13    14   ar
    32    14    15   ar
    33    15    16   ar
    34    16    17   ar
    35    17    18   ar
    36    18     9   ar
    37    17    12   ar
    38     6     2   ar
    39    36    21    1
    40    34    24   ar
    41    31    26   ar
@<TRIPOS>MOLECULE
*****
 36 41 0 0 0
SMALL
GASTEIGER

@<TRIPOS>ATOM
      1 S         142.5569  138.3081  159.1254 S.3     1  UNL1       -0.0742
      2 C         140.5238  141.4949  160.0062 C.ar    1  UNL1        0.1669
      3 N         139.4221  140.5099  159.7495 N.ar    1  UNL1       -0.1282
      4 N         140.0495  139.1962  159.3884 N.ar    1  UNL1       -0.1221
      5 C         141.5391  139.3693  159.4218 C.ar    1  UNL1        0.1933
      6 N         141.8323  140.7899  159.8036 N.ar    1  UNL1       -0.2884
      7 C         143.1946  141.3988  159.9561 C.3     1  UNL1        0.1340
      8 C         139.1838  144.3693  166.1047 C.3     1  UNL1        0.0521
      9 C         139.4749  144.0101  164.6777 C.ar    1  UNL1        0.0593
     10 C         139.6506  142.5725  164.2871 C.ar    1  UNL1        0.0147
     11 C         139.9417  142.2133  162.8601 C.ar    1  UNL1        0.0028
     12 C         140.0570  143.2917  161.8237 C.ar    1  UNL1        0.0206
     13 C         140.3480  142.9325  160.3968 C.ar    1  UNL1        0.0374
     14 C         140.4634  144.0107  159.3605 C.ar    1  UNL1        0.0031
     15 C         140.2876  145.4482  159.7512 C.ar    1  UNL1        0.0016
     16 C         139.9965  145.8075  161.1781 C.ar    1  UNL1        0.0191
     17 C         139.8812  144.7292  162.2145 C.ar    1  UNL1        0.0810
     18 N         139.5902  145.0884  163.6414 N.ar    1  UNL1       -0.2497
     19 C         143.0477  137.4119  160.2237 C.3     1  UNL1        0.0824
     20 C         143.9752  137.9499  161.2726 C.3     1  UNL1        0.0843
     21 N         143.4183  138.6071  162.5006 N.3     1  UNL1       -0.2713
     22 C         142.2298  137.9315  163.1181 C.3     1  UNL1        0.0768
     23 C         141.4530  138.3349  164.3363 C.3     1  UNL1        0.0434
     24 C         141.6727  139.5135  165.2376 C.ar    1  UNL1       -0.0233
     25 C         140.6649  139.5495  166.3481 C.ar    1  UNL1        0.0178
     26 C         140.7080  140.6517  167.3646 C.ar    1  UNL1        0.1179
     27 N         139.8536  140.9473  168.5615 N.ar    1  UNL1       -0.2121
     28 C         140.3763  142.1962  169.2072 C.ar    1  UNL1        0.2062
     29 C         139.8193  142.8533  170.4352 C.3     1  UNL1        0.0950
     30 O         141.5538  142.6725  168.4094 O.2     1  UNL1       -0.4387
     31 C         141.7588  141.7181  167.2706 C.ar    1  UNL1        0.1600
     32 C         142.7665  141.6821  166.1601 C.ar    1  UNL1        0.0101
     33 C         143.8173  142.7483  166.0660 C.3     1  UNL1        0.0339
     34 C         142.7235  140.5798  165.1436 C.ar    1  UNL1       -0.0256
     35 C         143.8141  140.7309  164.1249 C.3     1  UNL1        0.0431
     36 C         144.1233  139.8529  162.9487 C.3     1  UNL1        0.0768
@<TRIPOS>BOND
     1     8     9    1
     2     9    10   ar
     3    10    11   ar
     4    11    12   ar
     5    12    13   ar
     6    13     2    1
     7     2     3   ar
     8     3     4   ar
     9     4     5   ar
    10     5     1    1
    11     1    19    1
    12    19    20    1
    13    20    21    1
    14    21    22    1
    15    22    23    1
    16    23    24    1
    17    24    25   ar
    18    25    26   ar
    19    26    27   ar
    20    27    28   ar
    21    28    29    1
    22    28    30   ar
    23    30    31   ar
    24    31    32   ar
    25    32    33    1
    26    32    34   ar
    27    34    35    1
    28    35    36    1
    29     5     6   ar
    30     6     7    1
    31    13    14   ar
    32    14    15   ar
    33    15    16   ar
    34    16    17   ar
    35    17    18   ar
    36    18     9   ar
    37    17    12   ar
    38     6     2   ar
    39    36    21    1
    40    34    24   ar
    41    31    26   ar
@<TRIPOS>MOLECULE
*****
 36 41 0 0 0
SMALL
GASTEIGER

@<TRIPOS>ATOM
      1 S         142.7937  139.2672  158.3477 S.3     1  UNL1       -0.0742
      2 C         142.2128  142.6498  160.1603 C.ar    1  UNL1        0.1669
      3 N         143.6899  142.7071  159.9062 N.ar    1  UNL1       -0.1282
      4 N         144.0874  141.4469  159.1963 N.ar    1  UNL1       -0.1221
      5 C         142.8558  140.6108  159.0116 C.ar    1  UNL1        0.1933
      6 N         141.6972  141.3542  159.6074 N.ar    1  UNL1       -0.2884
      7 C         140.2731  140.8845  159.6440 C.3     1  UNL1        0.1340
      8 C         140.1060  143.1710  166.6826 C.3     1  UNL1        0.0521
      9 C         140.4282  143.3040  165.2236 C.ar    1  UNL1        0.0593
     10 C         141.2463  142.2507  164.5371 C.ar    1  UNL1        0.0147
     11 C         141.5684  142.3838  163.0781 C.ar    1  UNL1        0.0028
     12 C         141.0725  143.5701  162.3057 C.ar    1  UNL1        0.0206
     13 C         141.3947  143.7032  160.8468 C.ar    1  UNL1        0.0374
     14 C         140.8988  144.8895  160.0743 C.ar    1  UNL1        0.0031
     15 C         140.0808  145.9428  160.7609 C.ar    1  UNL1        0.0016
     16 C         139.7586  145.8098  162.2198 C.ar    1  UNL1        0.0191
     17 C         140.2545  144.6234  162.9923 C.ar    1  UNL1        0.0810
     18 N         139.9323  144.4904  164.4512 N.ar    1  UNL1       -0.2497
     19 C         142.5498  138.0355  159.1686 C.3     1  UNL1        0.0824
     20 C         143.4049  137.7522  160.3679 C.3     1  UNL1        0.0843
     21 N         142.9188  138.1181  161.7390 N.3     1  UNL1       -0.2713
     22 C         143.9673  138.6142  162.6903 C.3     1  UNL1        0.0768
     23 C         143.8044  139.0542  164.1151 C.3     1  UNL1        0.0434
     24 C         142.5530  139.1069  164.9403 C.ar    1  UNL1       -0.0233
     25 C         142.8309  139.6110  166.3255 C.ar    1  UNL1        0.0178
     26 C         141.7112  139.7407  167.3151 C.ar    1  UNL1        0.1179
     27 N         141.6808  140.2044  168.7413 N.ar    1  UNL1       -0.2121
     28 C         140.2644  140.1167  169.2272 C.ar    1  UNL1        0.2062
     29 C         139.7784  140.4826  170.5983 C.3     1  UNL1        0.0950
     30 O         139.4194  139.5987  168.1013 O.2     1  UNL1       -0.4387
     31 C         140.3135  139.3664  166.9197 C.ar    1  UNL1        0.1600
     32 C         140.0356  138.8623  165.5344 C.ar    1  UNL1        0.0101
     33 C         138.6380  138.4880  165.1389 C.3     1  UNL1        0.0339
     34 C         141.1554  138.7326  164.5448 C.ar    1  UNL1       -0.0256
     35 C         140.6639  138.2131  163.2263 C.3     1  UNL1        0.0431
     36 C         141.4488  137.9396  161.9776 C.3     1  UNL1        0.0768
@<TRIPOS>BOND
     1     8     9    1
     2     9    10   ar
     3    10    11   ar
     4    11    12   ar
     5    12    13   ar
     6    13     2    1
     7     2     3   ar
     8     3     4   ar
     9     4     5   ar
    10     5     1    1
    11     1    19    1
    12    19    20    1
    13    20    21    1
    14    21    22    1
    15    22    23    1
    16    23    24    1
    17    24    25   ar
    18    25    26   ar
    19    26    27   ar
    20    27    28   ar
    21    28    29    1
    22    28    30   ar
    23    30    31   ar
    24    31    32   ar
    25    32    33    1
    26    32    34   ar
    27    34    35    1
    28    35    36    1
    29     5     6   ar
    30     6     7    1
    31    13    14   ar
    32    14    15   ar
    33    15    16   ar
    34    16    17   ar
    35    17    18   ar
    36    18     9   ar
    37    17    12   ar
    38     6     2   ar
    39    36    21    1
    40    34    24   ar
    41    31    26   ar
@<TRIPOS>MOLECULE
*****
 36 41 0 0 0
SMALL
GASTEIGER

@<TRIPOS>ATOM
      1 S         140.1183  143.4871  158.0177 S.3     1  UNL1       -0.0742
      2 C         140.3014  140.2593  160.1655 C.ar    1  UNL1        0.1669
      3 N         141.3572  139.9830  159.1365 N.ar    1  UNL1       -0.1282
      4 N         141.4171  141.1585  158.2067 N.ar    1  UNL1       -0.1221
      5 C         140.3983  142.1613  158.6610 C.ar    1  UNL1        0.1933
      6 N         139.7087  141.6056  159.8717 N.ar    1  UNL1       -0.2884
      7 C         138.6181  142.2780  160.6515 C.3     1  UNL1        0.1340
      8 C         143.6854  138.4155  165.8575 C.3     1  UNL1        0.0521
      9 C         142.7409  138.6489  164.7158 C.ar    1  UNL1        0.0593
     10 C         143.1350  139.5591  163.5905 C.ar    1  UNL1        0.0147
     11 C         142.1904  139.7925  162.4488 C.ar    1  UNL1        0.0028
     12 C         140.8518  139.1157  162.4325 C.ar    1  UNL1        0.0206
     13 C         139.9073  139.3491  161.2909 C.ar    1  UNL1        0.0374
     14 C         138.5687  138.6724  161.2745 C.ar    1  UNL1        0.0031
     15 C         138.1748  137.7623  162.3998 C.ar    1  UNL1        0.0016
     16 C         139.1193  137.5288  163.5415 C.ar    1  UNL1        0.0191
     17 C         140.4578  138.2056  163.5578 C.ar    1  UNL1        0.0810
     18 N         141.4023  137.9722  164.6995 N.ar    1  UNL1       -0.2497
     19 C         141.1239  144.5958  158.1160 C.3     1  UNL1        0.0824
     20 C         141.0824  145.5453  159.2765 C.3     1  UNL1        0.0843
     21 N         141.0761  145.0149  160.6796 N.3     1  UNL1       -0.2713
     22 C         142.2289  144.1274  161.0450 C.3     1  UNL1        0.0768
     23 C         142.5081  143.4479  162.3529 C.3     1  UNL1        0.0434
     24 C         141.7036  143.4882  163.6182 C.ar    1  UNL1       -0.0233
     25 C         142.3394  142.6640  164.6983 C.ar    1  UNL1        0.0178
     26 C         141.6928  142.5696  166.0485 C.ar    1  UNL1        0.1179
     27 N         142.0831  141.8397  167.2994 N.ar    1  UNL1       -0.2121
     28 C         141.0418  142.1183  168.3426 C.ar    1  UNL1        0.2062
     29 C         141.0356  141.5879  169.7457 C.3     1  UNL1        0.0950
     30 O         140.0081  143.0203  167.7364 O.2     1  UNL1       -0.4387
     31 C         140.4103  143.2992  166.3186 C.ar    1  UNL1        0.1600
     32 C         139.7745  144.1234  165.2385 C.ar    1  UNL1        0.0101
     33 C         138.4921  144.8530  165.5085 C.3     1  UNL1        0.0339
     34 C         140.4212  144.2179  163.8883 C.ar    1  UNL1       -0.0256
     35 C         139.6265  145.0875  162.9597 C.3     1  UNL1        0.0431
     36 C         139.9180  145.4422  161.5317 C.3     1  UNL1        0.0768
@<TRIPOS>BOND
     1     8     9    1
     2     9    10   ar
     3    10    11   ar
     4    11    12   ar
     5    12    13   ar
     6    13     2    1
     7     2     3   ar
     8     3     4   ar
     9     4     5   ar
    10     5     1    1
    11     1    19    1
    12    19    20    1
    13    20    21    1
    14    21    22    1
    15    22    23    1
    16    23    24    1
    17    24    25   ar
    18    25    26   ar
    19    26    27   ar
    20    27    28   ar
    21    28    29    1
    22    28    30   ar
    23    30    31   ar
    24    31    32   ar
    25    32    33    1
    26    32    34   ar
    27    34    35    1
    28    35    36    1
    29     5     6   ar
    30     6     7    1
    31    13    14   ar
    32    14    15   ar
    33    15    16   ar
    34    16    17   ar
    35    17    18   ar
    36    18     9   ar
    37    17    12   ar
    38     6     2   ar
    39    36    21    1
    40    34    24   ar
    41    31    26   ar
@<TRIPOS>MOLECULE
*****
 36 41 0 0 0
SMALL
GASTEIGER

@<TRIPOS>ATOM
      1 S         139.0237  140.3224  158.2607 S.3     1  UNL1       -0.0742
      2 C         142.2347  140.0101  160.4187 C.ar    1  UNL1        0.1669
      3 N         142.1705  138.6472  159.7956 N.ar    1  UNL1       -0.1282
      4 N         140.9599  138.5982  158.9114 N.ar    1  UNL1       -0.1221
      5 C         140.2758  139.9309  158.9879 C.ar    1  UNL1        0.1933
      6 N         141.0636  140.8036  159.9195 N.ar    1  UNL1       -0.2884
      7 C         140.7377  142.2207  160.2874 C.3     1  UNL1        0.1340
      8 C         143.7040  138.0818  166.8508 C.3     1  UNL1        0.0521
      9 C         143.5993  138.6850  165.4815 C.ar    1  UNL1        0.0593
     10 C         142.5486  138.2005  164.5268 C.ar    1  UNL1        0.0147
     11 C         142.4440  138.8037  163.1574 C.ar    1  UNL1        0.0028
     12 C         143.3900  139.8914  162.7426 C.ar    1  UNL1        0.0206
     13 C         143.2854  140.4946  161.3733 C.ar    1  UNL1        0.0374
     14 C         144.2314  141.5822  160.9585 C.ar    1  UNL1        0.0031
     15 C         145.2821  142.0667  161.9132 C.ar    1  UNL1        0.0016
     16 C         145.3867  141.4635  163.2826 C.ar    1  UNL1        0.0191
     17 C         144.4407  140.3758  163.6973 C.ar    1  UNL1        0.0810
     18 N         144.5454  139.7726  165.0667 N.ar    1  UNL1       -0.2497
     19 C         137.7843  140.6663  159.0327 C.3     1  UNL1        0.0824
     20 C         137.3443  139.7951  160.1716 C.3     1  UNL1        0.0843
     21 N         137.8811  140.0364  161.5514 N.3     1  UNL1       -0.2713
     22 C         138.2117  138.8073  162.3452 C.3     1  UNL1        0.0768
     23 C         138.7593  138.7132  163.7386 C.3     1  UNL1        0.0434
     24 C         139.1113  139.8247  164.6821 C.ar    1  UNL1       -0.0233
     25 C         139.6304  139.2935  165.9854 C.ar    1  UNL1        0.0178
     26 C         140.0411  140.2425  167.0719 C.ar    1  UNL1        0.1179
     27 N         140.5852  140.0146  168.4510 N.ar    1  UNL1       -0.2121
     28 C         140.8129  141.3540  169.0867 C.ar    1  UNL1        0.2062
     29 C         141.3498  141.5952  170.4665 C.3     1  UNL1        0.0950
     30 O         140.4096  142.4097  168.1005 O.2     1  UNL1       -0.4387
     31 C         139.9326  141.7229  166.8553 C.ar    1  UNL1        0.1600
     32 C         139.4135  142.2541  165.5521 C.ar    1  UNL1        0.0101
     33 C         139.3050  143.7343  165.3355 C.3     1  UNL1        0.0339
     34 C         139.0028  141.3050  164.4655 C.ar    1  UNL1       -0.0256
     35 C         138.5155  142.0394  163.2518 C.3     1  UNL1        0.0431
     36 C         138.0163  141.4747  161.9548 C.3     1  UNL1        0.0768
@<TRIPOS>BOND
     1     8     9    1
     2     9    10   ar
     3    10    11   ar
     4    11    12   ar
     5    12    13   ar
     6    13     2    1
     7     2     3   ar
     8     3     4   ar
     9     4     5   ar
    10     5     1    1
    11     1    19    1
    12    19    20    1
    13    20    21    1
    14    21    22    1
    15    22    23    1
    16    23    24    1
    17    24    25   ar
    18    25    26   ar
    19    26    27   ar
    20    27    28   ar
    21    28    29    1
    22    28    30   ar
    23    30    31   ar
    24    31    32   ar
    25    32    33    1
    26    32    34   ar
    27    34    35    1
    28    35    36    1
    29     5     6   ar
    30     6     7    1
    31    13    14   ar
    32    14    15   ar
    33    15    16   ar
    34    16    17   ar
    35    17    18   ar
    36    18     9   ar
    37    17    12   ar
    38     6     2   ar
    39    36    21    1
    40    34    24   ar
    41    31    26   ar
@<TRIPOS>MOLECULE
*****
 36 41 0 0 0
SMALL
GASTEIGER

@<TRIPOS>ATOM
      1 S         142.9108  141.8182  167.0712 S.3     1  UNL1       -0.0742
      2 C         139.9801  140.5212  164.8817 C.ar    1  UNL1        0.1669
      3 N         139.2547  141.4329  165.8264 N.ar    1  UNL1       -0.1282
      4 N         140.2642  142.0297  166.7616 N.ar    1  UNL1       -0.1221
      5 C         141.6136  141.4869  166.3949 C.ar    1  UNL1        0.1933
      6 N         141.4380  140.5545  165.2330 N.ar    1  UNL1       -0.2884
      7 C         142.5288  139.7898  164.5435 C.3     1  UNL1        0.1340
      8 C         138.2344  142.2732  158.4682 C.3     1  UNL1        0.0521
      9 C         138.5151  141.6342  159.7959 C.ar    1  UNL1        0.0593
     10 C         139.1382  142.4382  160.8985 C.ar    1  UNL1        0.0147
     11 C         139.4188  141.7991  162.2262 C.ar    1  UNL1        0.0028
     12 C         139.0764  140.3562  162.4515 C.ar    1  UNL1        0.0206
     13 C         139.3571  139.7172  163.7792 C.ar    1  UNL1        0.0374
     14 C         139.0147  138.2743  164.0045 C.ar    1  UNL1        0.0031
     15 C         138.3917  137.4704  162.9020 C.ar    1  UNL1        0.0016
     16 C         138.1110  138.1094  161.5742 C.ar    1  UNL1        0.0191
     17 C         138.4534  139.5523  161.3490 C.ar    1  UNL1        0.0810
     18 N         138.1727  140.1913  160.0212 N.ar    1  UNL1       -0.2497
     19 C         143.7630  142.9379  166.5515 C.3     1  UNL1        0.0824
     20 C         144.4546  142.8018  165.2274 C.3     1  UNL1        0.0843
     21 N         143.7582  143.2304  163.9699 N.3     1  UNL1       -0.2713
     22 C         144.2658  142.6111  162.7015 C.3     1  UNL1        0.0768
     23 C         143.7868  142.8301  161.2969 C.3     1  UNL1        0.0434
     24 C         142.6821  143.7223  160.8140 C.ar    1  UNL1       -0.0233
     25 C         142.5284  143.6467  159.3238 C.ar    1  UNL1        0.0178
     26 C         141.4760  144.4647  158.6358 C.ar    1  UNL1        0.1179
     27 N         141.0914  144.5961  157.1920 N.ar    1  UNL1       -0.2121
     28 C         139.9550  145.5711  157.1019 C.ar    1  UNL1        0.2062
     29 C         139.2586  145.9997  155.8443 C.3     1  UNL1        0.0950
     30 O         139.6373  146.0422  158.4900 O.2     1  UNL1       -0.4387
     31 C         140.5772  145.3584  159.4380 C.ar    1  UNL1        0.1600
     32 C         140.7310  145.4341  160.9283 C.ar    1  UNL1        0.0101
     33 C         139.8323  146.3278  161.7305 C.3     1  UNL1        0.0339
     34 C         141.7834  144.6161  161.6162 C.ar    1  UNL1       -0.0256
     35 C         141.7675  144.8382  163.0996 C.3     1  UNL1        0.0431
     36 C         142.6464  144.2215  164.1470 C.3     1  UNL1        0.0768
@<TRIPOS>BOND
     1     8     9    1
     2     9    10   ar
     3    10    11   ar
     4    11    12   ar
     5    12    13   ar
     6    13     2    1
     7     2     3   ar
     8     3     4   ar
     9     4     5   ar
    10     5     1    1
    11     1    19    1
    12    19    20    1
    13    20    21    1
    14    21    22    1
    15    22    23    1
    16    23    24    1
    17    24    25   ar
    18    25    26   ar
    19    26    27   ar
    20    27    28   ar
    21    28    29    1
    22    28    30   ar
    23    30    31   ar
    24    31    32   ar
    25    32    33    1
    26    32    34   ar
    27    34    35    1
    28    35    36    1
    29     5     6   ar
    30     6     7    1
    31    13    14   ar
    32    14    15   ar
    33    15    16   ar
    34    16    17   ar
    35    17    18   ar
    36    18     9   ar
    37    17    12   ar
    38     6     2   ar
    39    36    21    1
    40    34    24   ar
    41    31    26   ar
@<TRIPOS>MOLECULE
*****
 36 41 0 0 0
SMALL
GASTEIGER

@<TRIPOS>ATOM
      1 S         142.5209  139.7535  157.3450 S.3     1  UNL1       -0.0742
      2 C         143.3251  136.4274  155.5132 C.ar    1  UNL1        0.1669
      3 N         144.6422  137.1382  155.4149 N.ar    1  UNL1       -0.1282
      4 N         144.5014  138.4707  156.0891 N.ar    1  UNL1       -0.1221
      5 C         143.0971  138.5835  156.6041 C.ar    1  UNL1        0.1933
      6 N         142.3700  137.3206  156.2482 N.ar    1  UNL1       -0.2884
      7 C         140.9393  137.0062  156.5706 C.3     1  UNL1        0.1340
      8 C         144.6370  130.1761  158.0529 C.3     1  UNL1        0.0521
      9 C         144.2320  131.3978  157.2826 C.ar    1  UNL1        0.0593
     10 C         144.5401  132.7623  157.8242 C.ar    1  UNL1        0.0147
     11 C         144.1351  133.9841  157.0538 C.ar    1  UNL1        0.0028
     12 C         143.4219  133.8413  155.7419 C.ar    1  UNL1        0.0206
     13 C         143.0169  135.0629  154.9716 C.ar    1  UNL1        0.0374
     14 C         142.3037  134.9202  153.6597 C.ar    1  UNL1        0.0031
     15 C         141.9956  133.5558  153.1182 C.ar    1  UNL1        0.0016
     16 C         142.4006  132.3340  153.8885 C.ar    1  UNL1        0.0191
     17 C         143.1138  132.4768  155.2004 C.ar    1  UNL1        0.0810
     18 N         143.5188  131.2551  155.9707 N.ar    1  UNL1       -0.2497
     19 C         142.9568  140.0390  158.7517 C.3     1  UNL1        0.0824
     20 C         143.0104  138.9298  159.7599 C.3     1  UNL1        0.0843
     21 N         142.4695  139.1459  161.1422 N.3     1  UNL1       -0.2713
     22 C         143.1072  140.2557  161.9244 C.3     1  UNL1        0.0768
     23 C         142.7953  140.7173  163.3172 C.3     1  UNL1        0.0434
     24 C         141.7688  140.1832  164.2715 C.ar    1  UNL1       -0.0233
     25 C         141.7845  140.9343  165.5700 C.ar    1  UNL1        0.0178
     26 C         140.8320  140.5576  166.6658 C.ar    1  UNL1        0.1179
     27 N         140.6167  141.1116  168.0430 N.ar    1  UNL1       -0.2121
     28 C         139.5155  140.3263  168.6916 C.ar    1  UNL1        0.2062
     29 C         138.9747  140.5425  170.0740 C.3     1  UNL1        0.0950
     30 O         139.0502  139.2871  167.7153 O.2     1  UNL1       -0.4387
     31 C         139.8637  139.4300  166.4633 C.ar    1  UNL1        0.1600
     32 C         139.8481  138.6789  165.1649 C.ar    1  UNL1        0.0101
     33 C         138.8799  137.5513  164.9624 C.3     1  UNL1        0.0339
     34 C         140.8006  139.0556  164.0691 C.ar    1  UNL1       -0.0256
     35 C         140.6198  138.1835  162.8621 C.3     1  UNL1        0.0431
     36 C         141.3626  138.2238  161.5595 C.3     1  UNL1        0.0768
@<TRIPOS>BOND
     1     8     9    1
     2     9    10   ar
     3    10    11   ar
     4    11    12   ar
     5    12    13   ar
     6    13     2    1
     7     2     3   ar
     8     3     4   ar
     9     4     5   ar
    10     5     1    1
    11     1    19    1
    12    19    20    1
    13    20    21    1
    14    21    22    1
    15    22    23    1
    16    23    24    1
    17    24    25   ar
    18    25    26   ar
    19    26    27   ar
    20    27    28   ar
    21    28    29    1
    22    28    30   ar
    23    30    31   ar
    24    31    32   ar
    25    32    33    1
    26    32    34   ar
    27    34    35    1
    28    35    36    1
    29     5     6   ar
    30     6     7    1
    31    13    14   ar
    32    14    15   ar
    33    15    16   ar
    34    16    17   ar
    35    17    18   ar
    36    18     9   ar
    37    17    12   ar
    38     6     2   ar
    39    36    21    1
    40    34    24   ar
    41    31    26   ar
