@<TRIPOS>MOLECULE
*****
 46 49 0 0 0
SMALL
GASTEIGER

@<TRIPOS>ATOM
      1 C         143.9529  143.1068  161.6459 C.2     1  UNL1        0.2490
      2 O         144.7602  144.2501  162.1856 O.2     1  UNL1       -0.2699
      3 N         143.4977  142.0111  162.5636 N.am    1  UNL1       -0.2743
      4 C         142.6904  140.8678  162.0239 C.3     1  UNL1        0.1152
      5 C         142.2353  139.7720  162.9416 C.3     1  UNL1        0.1149
      6 N         142.5874  139.8195  164.3989 N.am    1  UNL1       -0.2761
      7 C         142.1322  138.7237  165.3166 C.2     1  UNL1        0.2257
      8 O         142.4843  138.7712  166.7739 O.2     1  UNL1       -0.2749
      9 C         143.3946  140.9627  164.9386 C.3     1  UNL1        0.1132
     10 C         143.8498  142.0586  164.0209 C.3     1  UNL1        0.0955
     11 C         144.6571  143.2018  164.5606 C.3     1  UNL1        0.0233
     12 C         142.8966  142.9643  157.2740 C.ar    1  UNL1        0.1306
     13 C         144.0057  142.1060  157.8060 C.ar    1  UNL1        0.0110
     14 C         144.3578  142.1535  159.2633 C.ar    1  UNL1        0.0032
     15 C         143.6008  143.0593  160.1886 C.ar    1  UNL1        0.0532
     16 C         142.4917  143.9177  159.6567 C.ar    1  UNL1        0.0032
     17 C         142.1396  143.8702  158.1993 C.ar    1  UNL1        0.0110
     18 C         144.7628  141.2001  156.8806 C.3     1  UNL1        0.0218
     19 C         145.8757  142.2032  156.8090 C.3     1  UNL1        0.0045
     20 C         143.6499  140.1970  156.9522 C.3     1  UNL1        0.0045
     21 C         145.5198  140.2942  155.9553 C.3     1  UNL1        0.0045
     22 C         141.0304  144.7286  157.6674 C.3     1  UNL1        0.0218
     23 C         140.0687  143.5898  157.8352 C.3     1  UNL1        0.0045
     24 C         141.9921  145.8674  157.4996 C.3     1  UNL1        0.0045
     25 C         139.9212  145.5870  157.1355 C.3     1  UNL1        0.0045
     26 C         143.2684  143.7967  154.8411 C.3     1  UNL1        0.2524
     27 O         142.5445  142.9169  155.8167 O.3     1  UNL1       -0.4721
     28 C         141.3249  137.5804  164.7769 C.3     1  UNL1        0.0853
     29 C         139.8274  137.6173  164.8544 C.3     1  UNL1        0.0096
     30 C         139.0690  138.7274  164.1892 C.3     1  UNL1        0.0012
     31 C         138.3195  139.7266  165.0197 C.3     1  UNL1        0.0087
     32 C         138.9986  140.9847  165.4735 C.3     1  UNL1        0.0446
     33 C         139.6946  141.0242  166.8017 C.ar    1  UNL1       -0.0183
     34 C         139.4134  139.9666  167.8275 C.ar    1  UNL1       -0.0017
     35 C         140.1094  140.0061  169.1557 C.ar    1  UNL1        0.0293
     36 C         141.0866  141.1033  169.4580 C.ar    1  UNL1        0.1401
     37 F         141.7826  141.1428  170.7861 F       1  UNL1       -0.2042
     38 C         141.3678  142.1609  168.4321 C.ar    1  UNL1        0.0293
     39 C         140.6718  142.1214  167.1040 C.ar    1  UNL1       -0.0017
     40 C         138.9817  142.2033  164.5991 C.ar    1  UNL1       -0.0183
     41 C         137.7444  143.0468  164.5119 C.ar    1  UNL1       -0.0017
     42 C         137.7275  144.2654  163.6374 C.ar    1  UNL1        0.0293
     43 C         138.9479  144.6406  162.8502 C.ar    1  UNL1        0.1401
     44 F         138.9310  145.8593  161.9758 F       1  UNL1       -0.2042
     45 C         140.1853  143.7972  162.9374 C.ar    1  UNL1        0.0293
     46 C         140.2022  142.5785  163.8118 C.ar    1  UNL1       -0.0017
@<TRIPOS>BOND
     1    26    27    1
     2    27    12    1
     3    12    13   ar
     4    13    18    1
     5    18    19    1
     6    18    20    1
     7    18    21    1
     8    13    14   ar
     9    14    15   ar
    10    15     1    1
    11     1     2    2
    12     1     3   am
    13     3     4    1
    14     4     5    1
    15     5     6    1
    16     6     7   am
    17     7     8    2
    18     7    28    1
    19    28    29    1
    20    29    30    1
    21    30    31    1
    22    31    32    1
    23    32    33    1
    24    33    34   ar
    25    34    35   ar
    26    35    36   ar
    27    36    37    1
    28    36    38   ar
    29    38    39   ar
    30    32    40    1
    31    40    41   ar
    32    41    42   ar
    33    42    43   ar
    34    43    44    1
    35    43    45   ar
    36    45    46   ar
    37     6     9    1
    38     9    10    1
    39    10    11    1
    40    15    16   ar
    41    16    17   ar
    42    17    22    1
    43    22    23    1
    44    22    24    1
    45    22    25    1
    46    17    12   ar
    47    10     3    1
    48    39    33   ar
    49    46    40   ar
@<TRIPOS>MOLECULE
*****
 46 49 0 0 0
SMALL
GASTEIGER

@<TRIPOS>ATOM
      1 C         143.9621  143.0994  161.6258 C.2     1  UNL1        0.2490
      2 O         144.7647  144.2405  162.1767 O.2     1  UNL1       -0.2699
      3 N         143.5002  141.9996  162.5352 N.am    1  UNL1       -0.2743
      4 C         142.6975  140.8583  161.9843 C.3     1  UNL1        0.1152
      5 C         142.2356  139.7585  162.8936 C.3     1  UNL1        0.1149
      6 N         142.5763  139.7998  164.3538 N.am    1  UNL1       -0.2761
      7 C         142.1143  138.6999  165.2632 C.2     1  UNL1        0.2257
      8 O         142.4551  138.7412  166.7234 O.2     1  UNL1       -0.2749
      9 C         143.3789  140.9409  164.9047 C.3     1  UNL1        0.1132
     10 C         143.8409  142.0409  163.9954 C.3     1  UNL1        0.0955
     11 C         144.6436  143.1820  164.5462 C.3     1  UNL1        0.0233
     12 C         142.9399  142.9755  157.2452 C.ar    1  UNL1        0.1306
     13 C         142.1885  143.8916  158.1651 C.ar    1  UNL1        0.0110
     14 C         142.5293  143.9329  159.6253 C.ar    1  UNL1        0.0032
     15 C         143.6213  143.0581  160.1656 C.ar    1  UNL1        0.0532
     16 C         144.3727  142.1420  159.2458 C.ar    1  UNL1        0.0032
     17 C         144.0319  142.1007  157.7856 C.ar    1  UNL1        0.0110
     18 C         141.0964  144.7665  157.6247 C.3     1  UNL1        0.0218
     19 C         140.1201  143.6368  157.7688 C.3     1  UNL1        0.0045
     20 C         142.0726  145.8961  157.4806 C.3     1  UNL1        0.0045
     21 C         140.0043  145.6413  157.0844 C.3     1  UNL1        0.0045
     22 C         144.7833  141.1845  156.8657 C.3     1  UNL1        0.0218
     23 C         145.8793  142.2018  156.7477 C.3     1  UNL1        0.0045
     24 C         143.6874  140.1672  156.9836 C.3     1  UNL1        0.0045
     25 C         145.5348  140.2684  155.9459 C.3     1  UNL1        0.0045
     26 C         143.3118  143.8375  154.8227 C.3     1  UNL1        0.2524
     27 O         142.5991  142.9342  155.7850 O.3     1  UNL1       -0.4721
     28 C         141.3117  137.5587  164.7123 C.3     1  UNL1        0.0853
     29 C         139.8148  137.5802  164.8068 C.3     1  UNL1        0.0096
     30 C         139.0412  138.7129  164.1997 C.3     1  UNL1        0.0012
     31 C         138.3279  139.6926  165.0836 C.3     1  UNL1        0.0087
     32 C         139.0203  140.9486  165.5231 C.3     1  UNL1        0.0446
     33 C         139.7408  140.9870  166.8382 C.ar    1  UNL1       -0.0183
     34 C         140.7279  142.0804  167.1209 C.ar    1  UNL1       -0.0017
     35 C         141.4484  142.1188  168.4361 C.ar    1  UNL1        0.0293
     36 C         141.1817  141.0638  169.4684 C.ar    1  UNL1        0.1401
     37 F         141.9021  141.1021  170.7835 F       1  UNL1       -0.2042
     38 C         140.1945  139.9703  169.1856 C.ar    1  UNL1        0.0293
     39 C         139.4741  139.9319  167.8705 C.ar    1  UNL1       -0.0017
     40 C         138.9924  142.1661  164.6474 C.ar    1  UNL1       -0.0183
     41 C         140.2081  142.5494  163.8567 C.ar    1  UNL1       -0.0017
     42 C         140.1801  143.7669  162.9811 C.ar    1  UNL1        0.0293
     43 C         138.9365  144.6012  162.8961 C.ar    1  UNL1        0.1401
     44 F         138.9085  145.8188  162.0204 F       1  UNL1       -0.2042
     45 C         137.7207  144.2180  163.6867 C.ar    1  UNL1        0.0293
     46 C         137.7486  143.0004  164.5624 C.ar    1  UNL1       -0.0017
@<TRIPOS>BOND
     1    26    27    1
     2    27    12    1
     3    12    13   ar
     4    13    18    1
     5    18    19    1
     6    18    20    1
     7    18    21    1
     8    13    14   ar
     9    14    15   ar
    10    15     1    1
    11     1     2    2
    12     1     3   am
    13     3     4    1
    14     4     5    1
    15     5     6    1
    16     6     7   am
    17     7     8    2
    18     7    28    1
    19    28    29    1
    20    29    30    1
    21    30    31    1
    22    31    32    1
    23    32    33    1
    24    33    34   ar
    25    34    35   ar
    26    35    36   ar
    27    36    37    1
    28    36    38   ar
    29    38    39   ar
    30    32    40    1
    31    40    41   ar
    32    41    42   ar
    33    42    43   ar
    34    43    44    1
    35    43    45   ar
    36    45    46   ar
    37     6     9    1
    38     9    10    1
    39    10    11    1
    40    15    16   ar
    41    16    17   ar
    42    17    22    1
    43    22    23    1
    44    22    24    1
    45    22    25    1
    46    17    12   ar
    47    10     3    1
    48    39    33   ar
    49    46    40   ar
@<TRIPOS>MOLECULE
*****
 46 49 0 0 0
SMALL
GASTEIGER

@<TRIPOS>ATOM
      1 C         143.9539  143.0584  161.5764 C.2     1  UNL1        0.2490
      2 O         144.7709  144.1954  162.1145 O.2     1  UNL1       -0.2699
      3 N         143.4848  141.9707  162.4967 N.am    1  UNL1       -0.2743
      4 C         142.6677  140.8336  161.9587 C.3     1  UNL1        0.1152
      5 C         142.1986  139.7459  162.8789 C.3     1  UNL1        0.1149
      6 N         142.5465  139.7953  164.3372 N.am    1  UNL1       -0.2761
      7 C         142.0773  138.7076  165.2574 C.2     1  UNL1        0.2257
      8 O         142.4252  138.7570  166.7157 O.2     1  UNL1       -0.2749
      9 C         143.3635  140.9324  164.8752 C.3     1  UNL1        0.1132
     10 C         143.8327  142.0201  163.9549 C.3     1  UNL1        0.0955
     11 C         144.6497  143.1572  164.4930 C.3     1  UNL1        0.0233
     12 C         142.9102  142.9102  157.2017 C.ar    1  UNL1        0.1306
     13 C         144.0289  142.0651  157.7349 C.ar    1  UNL1        0.0110
     14 C         144.3768  142.1145  159.1931 C.ar    1  UNL1        0.0032
     15 C         143.6060  143.0090  160.1182 C.ar    1  UNL1        0.0532
     16 C         142.4874  143.8541  159.5850 C.ar    1  UNL1        0.0032
     17 C         142.1395  143.8047  158.1267 C.ar    1  UNL1        0.0110
     18 C         144.7997  141.1705  156.8098 C.3     1  UNL1        0.0218
     19 C         145.8809  142.2054  156.7098 C.3     1  UNL1        0.0045
     20 C         143.7186  140.1356  156.9098 C.3     1  UNL1        0.0045
     21 C         145.5705  140.2760  155.8848 C.3     1  UNL1        0.0045
     22 C         141.0207  144.6498  157.5935 C.3     1  UNL1        0.0218
     23 C         140.0846  143.4836  157.7093 C.3     1  UNL1        0.0045
     24 C         141.9569  145.8161  157.4777 C.3     1  UNL1        0.0045
     25 C         139.9020  145.4949  157.0603 C.3     1  UNL1        0.0045
     26 C         143.2453  143.7833  154.7777 C.3     1  UNL1        0.2524
     27 O         142.5623  142.8608  155.7434 O.3     1  UNL1       -0.4721
     28 C         141.2603  137.5706  164.7194 C.3     1  UNL1        0.0853
     29 C         139.7647  137.6043  164.8285 C.3     1  UNL1        0.0096
     30 C         138.9928  138.7323  164.2106 C.3     1  UNL1        0.0012
     31 C         138.2844  139.7240  165.0850 C.3     1  UNL1        0.0087
     32 C         138.9864  140.9762  165.5199 C.3     1  UNL1        0.0446
     33 C         138.9734  142.1886  164.6367 C.ar    1  UNL1       -0.0183
     34 C         137.7591  143.0678  164.5876 C.ar    1  UNL1       -0.0017
     35 C         137.7461  144.2802  163.7044 C.ar    1  UNL1        0.0293
     36 C         138.9476  144.6134  162.8703 C.ar    1  UNL1        0.1401
     37 F         138.9347  145.8257  161.9872 F       1  UNL1       -0.2042
     38 C         140.1619  143.7342  162.9195 C.ar    1  UNL1        0.0293
     39 C         140.1748  142.5218  163.8027 C.ar    1  UNL1       -0.0017
     40 C         139.7013  141.0161  166.8380 C.ar    1  UNL1       -0.0183
     41 C         139.4168  139.9727  167.8774 C.ar    1  UNL1       -0.0017
     42 C         140.1318  140.0126  169.1954 C.ar    1  UNL1        0.0293
     43 C         141.1312  141.0959  169.4741 C.ar    1  UNL1        0.1401
     44 F         141.8461  141.1358  170.7921 F       1  UNL1       -0.2042
     45 C         141.4157  142.1393  168.4346 C.ar    1  UNL1        0.0293
     46 C         140.7008  142.0994  167.1166 C.ar    1  UNL1       -0.0017
@<TRIPOS>BOND
     1    26    27    1
     2    27    12    1
     3    12    13   ar
     4    13    18    1
     5    18    19    1
     6    18    20    1
     7    18    21    1
     8    13    14   ar
     9    14    15   ar
    10    15     1    1
    11     1     2    2
    12     1     3   am
    13     3     4    1
    14     4     5    1
    15     5     6    1
    16     6     7   am
    17     7     8    2
    18     7    28    1
    19    28    29    1
    20    29    30    1
    21    30    31    1
    22    31    32    1
    23    32    33    1
    24    33    34   ar
    25    34    35   ar
    26    35    36   ar
    27    36    37    1
    28    36    38   ar
    29    38    39   ar
    30    32    40    1
    31    40    41   ar
    32    41    42   ar
    33    42    43   ar
    34    43    44    1
    35    43    45   ar
    36    45    46   ar
    37     6     9    1
    38     9    10    1
    39    10    11    1
    40    15    16   ar
    41    16    17   ar
    42    17    22    1
    43    22    23    1
    44    22    24    1
    45    22    25    1
    46    17    12   ar
    47    10     3    1
    48    39    33   ar
    49    46    40   ar
@<TRIPOS>MOLECULE
*****
 46 49 0 0 0
SMALL
GASTEIGER

@<TRIPOS>ATOM
      1 C         143.9431  143.1102  161.6209 C.2     1  UNL1        0.2490
      2 O         144.7362  144.2624  162.1624 O.2     1  UNL1       -0.2699
      3 N         143.4914  142.0134  162.5390 N.am    1  UNL1       -0.2743
      4 C         142.6983  140.8610  161.9976 C.3     1  UNL1        0.1152
      5 C         142.2467  139.7642  162.9157 C.3     1  UNL1        0.1149
      6 N         142.5881  139.8197  164.3753 N.am    1  UNL1       -0.2761
      7 C         142.1363  138.7228  165.2934 C.2     1  UNL1        0.2257
      8 O         142.4777  138.7783  166.7530 O.2     1  UNL1       -0.2749
      9 C         143.3811  140.9720  164.9168 C.3     1  UNL1        0.1132
     10 C         143.8328  142.0688  163.9986 C.3     1  UNL1        0.0955
     11 C         144.6259  143.2211  164.5401 C.3     1  UNL1        0.0233
     12 C         142.9189  142.9437  157.2422 C.ar    1  UNL1        0.1306
     13 C         142.1515  143.8506  158.1580 C.ar    1  UNL1        0.0110
     14 C         142.4929  143.9061  159.6176 C.ar    1  UNL1        0.0032
     15 C         143.6017  143.0547  160.1614 C.ar    1  UNL1        0.0532
     16 C         144.3691  142.1478  159.2456 C.ar    1  UNL1        0.0032
     17 C         144.0277  142.0923  157.7860 C.ar    1  UNL1        0.0110
     18 C         141.0427  144.7020  157.6142 C.3     1  UNL1        0.0218
     19 C         141.9960  145.8510  157.4692 C.3     1  UNL1        0.0045
     20 C         140.0894  143.5531  157.7592 C.3     1  UNL1        0.0045
     21 C         139.9339  145.5534  157.0705 C.3     1  UNL1        0.0045
     22 C         144.7951  141.1854  156.8702 C.3     1  UNL1        0.0218
     23 C         145.8925  142.2041  156.7811 C.3     1  UNL1        0.0045
     24 C         143.6977  140.1668  156.9593 C.3     1  UNL1        0.0045
     25 C         145.5625  140.2786  155.9544 C.3     1  UNL1        0.0045
     26 C         143.3054  143.7661  154.8082 C.3     1  UNL1        0.2524
     27 O         142.5775  142.8882  155.7826 O.3     1  UNL1       -0.4721
     28 C         141.3433  137.5705  164.7519 C.3     1  UNL1        0.0853
     29 C         139.8450  137.5939  164.8191 C.3     1  UNL1        0.0096
     30 C         139.0819  138.7044  164.1598 C.3     1  UNL1        0.0012
     31 C         138.3240  139.6929  164.9955 C.3     1  UNL1        0.0087
     32 C         138.9931  140.9534  165.4575 C.3     1  UNL1        0.0446
     33 C         138.9709  142.1761  164.5888 C.ar    1  UNL1       -0.0183
     34 C         137.8160  143.1301  164.6662 C.ar    1  UNL1       -0.0017
     35 C         137.7938  144.3529  163.7975 C.ar    1  UNL1        0.0293
     36 C         138.9264  144.6215  162.8515 C.ar    1  UNL1        0.1401
     37 F         138.9042  145.8442  161.9829 F       1  UNL1       -0.2042
     38 C         140.0814  143.6674  162.7742 C.ar    1  UNL1        0.0293
     39 C         140.1036  142.4447  163.6428 C.ar    1  UNL1       -0.0017
     40 C         139.6845  140.9912  166.7881 C.ar    1  UNL1       -0.0183
     41 C         139.3780  139.9490  167.8224 C.ar    1  UNL1       -0.0017
     42 C         140.0694  139.9868  169.1531 C.ar    1  UNL1        0.0293
     43 C         141.0673  141.0668  169.4493 C.ar    1  UNL1        0.1401
     44 F         141.7587  141.1046  170.7800 F       1  UNL1       -0.2042
     45 C         141.3739  142.1090  168.4150 C.ar    1  UNL1        0.0293
     46 C         140.6825  142.0712  167.0843 C.ar    1  UNL1       -0.0017
@<TRIPOS>BOND
     1    26    27    1
     2    27    12    1
     3    12    13   ar
     4    13    18    1
     5    18    19    1
     6    18    20    1
     7    18    21    1
     8    13    14   ar
     9    14    15   ar
    10    15     1    1
    11     1     2    2
    12     1     3   am
    13     3     4    1
    14     4     5    1
    15     5     6    1
    16     6     7   am
    17     7     8    2
    18     7    28    1
    19    28    29    1
    20    29    30    1
    21    30    31    1
    22    31    32    1
    23    32    33    1
    24    33    34   ar
    25    34    35   ar
    26    35    36   ar
    27    36    37    1
    28    36    38   ar
    29    38    39   ar
    30    32    40    1
    31    40    41   ar
    32    41    42   ar
    33    42    43   ar
    34    43    44    1
    35    43    45   ar
    36    45    46   ar
    37     6     9    1
    38     9    10    1
    39    10    11    1
    40    15    16   ar
    41    16    17   ar
    42    17    22    1
    43    22    23    1
    44    22    24    1
    45    22    25    1
    46    17    12   ar
    47    10     3    1
    48    39    33   ar
    49    46    40   ar
@<TRIPOS>MOLECULE
*****
 46 49 0 0 0
SMALL
GASTEIGER

@<TRIPOS>ATOM
      1 C         139.8836  143.8762  163.9968 C.2     1  UNL1        0.2490
      2 O         138.8886  144.9847  164.1734 O.2     1  UNL1       -0.2699
      3 N         140.6937  143.7891  162.7374 N.am    1  UNL1       -0.2743
      4 C         141.6887  142.6806  162.5607 C.3     1  UNL1        0.1152
      5 C         142.4988  142.5936  161.3013 C.3     1  UNL1        0.1149
      6 N         142.3138  143.6149  160.2184 N.am    1  UNL1       -0.2761
      7 C         143.1239  143.5278  158.9590 C.2     1  UNL1        0.2257
      8 O         142.9389  144.5492  157.8761 O.2     1  UNL1       -0.2749
      9 C         141.3188  144.7234  160.3950 C.3     1  UNL1        0.1132
     10 C         140.5087  144.8105  161.6545 C.3     1  UNL1        0.0955
     11 C         139.5137  145.9190  161.8311 C.3     1  UNL1        0.0233
     12 C         140.4385  140.8121  167.2454 C.ar    1  UNL1        0.1306
     13 C         139.7549  140.4326  165.9653 C.ar    1  UNL1        0.0110
     14 C         139.5699  141.4540  164.8825 C.ar    1  UNL1        0.0032
     15 C         140.0686  142.8548  165.0796 C.ar    1  UNL1        0.0532
     16 C         140.7523  143.2343  166.3597 C.ar    1  UNL1        0.0032
     17 C         140.9372  142.2129  167.4425 C.ar    1  UNL1        0.0110
     18 C         139.2561  139.0317  165.7681 C.3     1  UNL1        0.0218
     19 C         140.5540  138.6618  165.1133 C.3     1  UNL1        0.0045
     20 C         137.9583  139.4016  166.4229 C.3     1  UNL1        0.0045
     21 C         138.7574  137.6309  165.5709 C.3     1  UNL1        0.0045
     22 C         141.6210  142.5925  168.7226 C.3     1  UNL1        0.0218
     23 C         142.8808  141.9330  168.2452 C.3     1  UNL1        0.0045
     24 C         140.3611  143.2519  169.2001 C.3     1  UNL1        0.0045
     25 C         142.3047  142.9719  170.0027 C.3     1  UNL1        0.0045
     26 C         139.7986  139.8657  169.5788 C.3     1  UNL1        0.2524
     27 O         140.6235  139.7907  168.3282 O.3     1  UNL1       -0.4721
     28 C         144.1189  142.4193  158.7824 C.3     1  UNL1        0.0853
     29 C         143.6941  141.1223  158.1602 C.3     1  UNL1        0.0096
     30 C         142.6821  141.1175  157.0530 C.3     1  UNL1        0.0012
     31 C         141.2340  140.8772  157.3615 C.3     1  UNL1        0.0087
     32 C         140.8067  139.5878  157.9978 C.3     1  UNL1        0.0446
     33 C         140.0011  139.6067  159.2630 C.ar    1  UNL1       -0.0183
     34 C         139.6731  138.3209  159.9625 C.ar    1  UNL1       -0.0017
     35 C         138.8675  138.3398  161.2277 C.ar    1  UNL1        0.0293
     36 C         138.3899  139.6443  161.7934 C.ar    1  UNL1        0.1401
     37 F         137.5843  139.6632  163.0585 F       1  UNL1       -0.2042
     38 C         138.7179  140.9301  161.0938 C.ar    1  UNL1        0.0293
     39 C         139.5235  140.9112  159.8287 C.ar    1  UNL1       -0.0017
     40 C         141.1849  138.2796  157.3689 C.ar    1  UNL1       -0.0183
     41 C         140.2887  137.6547  156.3411 C.ar    1  UNL1       -0.0017
     42 C         140.6670  136.3464  155.7122 C.ar    1  UNL1        0.0293
     43 C         141.9413  135.6632  156.1111 C.ar    1  UNL1        0.1401
     44 F         142.3195  134.3550  155.4822 F       1  UNL1       -0.2042
     45 C         142.8375  136.2881  157.1389 C.ar    1  UNL1        0.0293
     46 C         142.4593  137.5964  157.7678 C.ar    1  UNL1       -0.0017
@<TRIPOS>BOND
     1    26    27    1
     2    27    12    1
     3    12    13   ar
     4    13    18    1
     5    18    19    1
     6    18    20    1
     7    18    21    1
     8    13    14   ar
     9    14    15   ar
    10    15     1    1
    11     1     2    2
    12     1     3   am
    13     3     4    1
    14     4     5    1
    15     5     6    1
    16     6     7   am
    17     7     8    2
    18     7    28    1
    19    28    29    1
    20    29    30    1
    21    30    31    1
    22    31    32    1
    23    32    33    1
    24    33    34   ar
    25    34    35   ar
    26    35    36   ar
    27    36    37    1
    28    36    38   ar
    29    38    39   ar
    30    32    40    1
    31    40    41   ar
    32    41    42   ar
    33    42    43   ar
    34    43    44    1
    35    43    45   ar
    36    45    46   ar
    37     6     9    1
    38     9    10    1
    39    10    11    1
    40    15    16   ar
    41    16    17   ar
    42    17    22    1
    43    22    23    1
    44    22    24    1
    45    22    25    1
    46    17    12   ar
    47    10     3    1
    48    39    33   ar
    49    46    40   ar
@<TRIPOS>MOLECULE
*****
 46 49 0 0 0
SMALL
GASTEIGER

@<TRIPOS>ATOM
      1 C         139.8982  143.9900  164.0949 C.2     1  UNL1        0.2490
      2 O         138.9565  145.1346  164.3253 O.2     1  UNL1       -0.2699
      3 N         140.6580  143.8919  162.8053 N.am    1  UNL1       -0.2743
      4 C         141.5998  142.7473  162.5749 C.3     1  UNL1        0.1152
      5 C         142.3596  142.6492  161.2853 C.3     1  UNL1        0.1149
      6 N         142.1778  143.6958  160.2262 N.am    1  UNL1       -0.2761
      7 C         142.9377  143.5977  158.9366 C.2     1  UNL1        0.2257
      8 O         142.7559  144.6442  157.8775 O.2     1  UNL1       -0.2749
      9 C         141.2361  144.8404  160.4566 C.3     1  UNL1        0.1132
     10 C         140.4762  144.9385  161.7462 C.3     1  UNL1        0.0955
     11 C         139.5345  146.0830  161.9767 C.3     1  UNL1        0.0233
     12 C         140.4437  140.8504  167.2722 C.ar    1  UNL1        0.1306
     13 C         139.7537  140.5040  165.9862 C.ar    1  UNL1        0.0110
     14 C         139.5718  141.5506  164.9271 C.ar    1  UNL1        0.0032
     15 C         140.0800  142.9435  165.1540 C.ar    1  UNL1        0.0532
     16 C         140.7700  143.2898  166.4400 C.ar    1  UNL1        0.0032
     17 C         140.9518  142.2433  167.4991 C.ar    1  UNL1        0.0110
     18 C         139.2454  139.1111  165.7593 C.3     1  UNL1        0.0218
     19 C         140.5530  138.7370  165.1267 C.3     1  UNL1        0.0045
     20 C         137.9378  139.4851  166.3919 C.3     1  UNL1        0.0045
     21 C         138.7372  137.7182  165.5323 C.3     1  UNL1        0.0045
     22 C         141.6419  142.5897  168.7852 C.3     1  UNL1        0.0218
     23 C         142.8890  141.9134  168.2982 C.3     1  UNL1        0.0045
     24 C         140.3948  143.2661  169.2722 C.3     1  UNL1        0.0045
     25 C         142.3319  142.9361  170.0712 C.3     1  UNL1        0.0045
     26 C         139.8144  139.8635  169.5917 C.3     1  UNL1        0.2524
     27 O         140.6255  139.8039  168.3313 O.3     1  UNL1       -0.4721
     28 C         143.8794  142.4531  158.7062 C.3     1  UNL1        0.0853
     29 C         143.4278  141.2565  157.9225 C.3     1  UNL1        0.0096
     30 C         142.1084  140.6126  158.2304 C.3     1  UNL1        0.0012
     31 C         140.9405  140.8193  157.3122 C.3     1  UNL1        0.0087
     32 C         139.7012  141.4976  157.8162 C.3     1  UNL1        0.0446
     33 C         139.1125  141.0991  159.1371 C.ar    1  UNL1       -0.0183
     34 C         138.9137  139.6484  159.4626 C.ar    1  UNL1       -0.0017
     35 C         138.3250  139.2499  160.7835 C.ar    1  UNL1        0.0293
     36 C         137.9350  140.3021  161.7788 C.ar    1  UNL1        0.1401
     37 F         137.3463  139.9037  163.0997 F       1  UNL1       -0.2042
     38 C         138.1338  141.7529  161.4533 C.ar    1  UNL1        0.0293
     39 C         138.7226  142.1513  160.1325 C.ar    1  UNL1       -0.0017
     40 C         139.0506  142.5744  156.9994 C.ar    1  UNL1       -0.0183
     41 C         137.6439  142.3977  156.5097 C.ar    1  UNL1       -0.0017
     42 C         136.9933  143.4745  155.6929 C.ar    1  UNL1        0.0293
     43 C         137.7494  144.7280  155.3658 C.ar    1  UNL1        0.1401
     44 F         137.0987  145.8048  154.5490 F       1  UNL1       -0.2042
     45 C         139.1562  144.9047  155.8555 C.ar    1  UNL1        0.0293
     46 C         139.8068  143.8279  156.6723 C.ar    1  UNL1       -0.0017
@<TRIPOS>BOND
     1    26    27    1
     2    27    12    1
     3    12    13   ar
     4    13    18    1
     5    18    19    1
     6    18    20    1
     7    18    21    1
     8    13    14   ar
     9    14    15   ar
    10    15     1    1
    11     1     2    2
    12     1     3   am
    13     3     4    1
    14     4     5    1
    15     5     6    1
    16     6     7   am
    17     7     8    2
    18     7    28    1
    19    28    29    1
    20    29    30    1
    21    30    31    1
    22    31    32    1
    23    32    33    1
    24    33    34   ar
    25    34    35   ar
    26    35    36   ar
    27    36    37    1
    28    36    38   ar
    29    38    39   ar
    30    32    40    1
    31    40    41   ar
    32    41    42   ar
    33    42    43   ar
    34    43    44    1
    35    43    45   ar
    36    45    46   ar
    37     6     9    1
    38     9    10    1
    39    10    11    1
    40    15    16   ar
    41    16    17   ar
    42    17    22    1
    43    22    23    1
    44    22    24    1
    45    22    25    1
    46    17    12   ar
    47    10     3    1
    48    39    33   ar
    49    46    40   ar
@<TRIPOS>MOLECULE
*****
 46 49 0 0 0
SMALL
GASTEIGER

@<TRIPOS>ATOM
      1 C         139.8749  143.8673  164.0962 C.2     1  UNL1        0.2490
      2 O         138.8600  144.9588  164.2653 O.2     1  UNL1       -0.2699
      3 N         140.6927  143.7915  162.8411 N.am    1  UNL1       -0.2743
      4 C         141.7076  142.7000  162.6720 C.3     1  UNL1        0.1152
      5 C         142.5254  142.6242  161.4168 C.3     1  UNL1        0.1149
      6 N         142.3283  143.6399  160.3308 N.am    1  UNL1       -0.2761
      7 C         143.1462  143.5641  159.0756 C.2     1  UNL1        0.2257
      8 O         142.9491  144.5798  157.9895 O.2     1  UNL1       -0.2749
      9 C         141.3134  144.7314  160.4999 C.3     1  UNL1        0.1132
     10 C         140.4956  144.8072  161.7551 C.3     1  UNL1        0.0955
     11 C         139.4807  145.8987  161.9242 C.3     1  UNL1        0.0233
     12 C         140.4662  140.8202  167.3544 C.ar    1  UNL1        0.1306
     13 C         139.7792  140.4309  166.0791 C.ar    1  UNL1        0.0110
     14 C         139.5821  141.4466  164.9930 C.ar    1  UNL1        0.0032
     15 C         140.0720  142.8516  165.1823 C.ar    1  UNL1        0.0532
     16 C         140.7590  143.2409  166.4576 C.ar    1  UNL1        0.0032
     17 C         140.9561  142.2252  167.5436 C.ar    1  UNL1        0.0110
     18 C         139.2892  139.0258  165.8898 C.3     1  UNL1        0.0218
     19 C         137.9604  139.4110  166.4693 C.3     1  UNL1        0.0045
     20 C         140.6180  138.6406  165.3103 C.3     1  UNL1        0.0045
     21 C         138.7993  137.6208  165.7005 C.3     1  UNL1        0.0045
     22 C         141.6431  142.6146  168.8190 C.3     1  UNL1        0.0218
     23 C         140.3737  143.2448  169.3103 C.3     1  UNL1        0.0045
     24 C         142.9125  141.9844  168.3276 C.3     1  UNL1        0.0045
     25 C         142.3301  143.0040  170.0943 C.3     1  UNL1        0.0045
     26 C         139.8183  139.8569  169.6787 C.3     1  UNL1        0.2524
     27 O         140.6632  139.8045  168.4404 O.3     1  UNL1       -0.4721
     28 C         144.1611  142.4727  158.9065 C.3     1  UNL1        0.0853
     29 C         144.1384  141.6112  157.6788 C.3     1  UNL1        0.0096
     30 C         143.6573  140.1931  157.7664 C.3     1  UNL1        0.0012
     31 C         142.9971  139.7012  159.0202 C.3     1  UNL1        0.0087
     32 C         141.7038  138.9457  158.9401 C.3     1  UNL1        0.0446
     33 C         141.4694  137.9767  157.8192 C.ar    1  UNL1       -0.0183
     34 C         142.4836  136.9118  157.5240 C.ar    1  UNL1       -0.0017
     35 C         142.2493  135.9429  156.4031 C.ar    1  UNL1        0.0293
     36 C         141.0007  136.0389  155.5774 C.ar    1  UNL1        0.1401
     37 F         140.7663  135.0701  154.4566 F       1  UNL1       -0.2042
     38 C         139.9864  137.1040  155.8727 C.ar    1  UNL1        0.0293
     39 C         140.2208  138.0728  156.9935 C.ar    1  UNL1       -0.0017
     40 C         140.6448  139.1590  159.9807 C.ar    1  UNL1       -0.0183
     41 C         139.9179  140.4691  160.0535 C.ar    1  UNL1       -0.0017
     42 C         138.8588  140.6824  161.0941 C.ar    1  UNL1        0.0293
     43 C         138.5267  139.5857  162.0620 C.ar    1  UNL1        0.1401
     44 F         137.4677  139.7991  163.1027 F       1  UNL1       -0.2042
     45 C         139.2537  138.2756  161.9893 C.ar    1  UNL1        0.0293
     46 C         140.3127  138.0622  160.9487 C.ar    1  UNL1       -0.0017
@<TRIPOS>BOND
     1    26    27    1
     2    27    12    1
     3    12    13   ar
     4    13    18    1
     5    18    19    1
     6    18    20    1
     7    18    21    1
     8    13    14   ar
     9    14    15   ar
    10    15     1    1
    11     1     2    2
    12     1     3   am
    13     3     4    1
    14     4     5    1
    15     5     6    1
    16     6     7   am
    17     7     8    2
    18     7    28    1
    19    28    29    1
    20    29    30    1
    21    30    31    1
    22    31    32    1
    23    32    33    1
    24    33    34   ar
    25    34    35   ar
    26    35    36   ar
    27    36    37    1
    28    36    38   ar
    29    38    39   ar
    30    32    40    1
    31    40    41   ar
    32    41    42   ar
    33    42    43   ar
    34    43    44    1
    35    43    45   ar
    36    45    46   ar
    37     6     9    1
    38     9    10    1
    39    10    11    1
    40    15    16   ar
    41    16    17   ar
    42    17    22    1
    43    22    23    1
    44    22    24    1
    45    22    25    1
    46    17    12   ar
    47    10     3    1
    48    39    33   ar
    49    46    40   ar
@<TRIPOS>MOLECULE
*****
 46 49 0 0 0
SMALL
GASTEIGER

@<TRIPOS>ATOM
      1 C         139.8970  143.8584  164.0960 C.2     1  UNL1        0.2490
      2 O         138.9281  144.9908  164.2656 O.2     1  UNL1       -0.2699
      3 N         140.6975  143.7391  162.8330 N.am    1  UNL1       -0.2743
      4 C         141.6665  142.6067  162.6634 C.3     1  UNL1        0.1152
      5 C         142.4669  142.4874  161.4005 C.3     1  UNL1        0.1149
      6 N         142.2984  143.5004  160.3071 N.am    1  UNL1       -0.2761
      7 C         143.0989  143.3811  159.0442 C.2     1  UNL1        0.2257
      8 O         142.9304  144.3941  157.9509 O.2     1  UNL1       -0.2749
      9 C         141.3295  144.6328  160.4768 C.3     1  UNL1        0.1132
     10 C         140.5290  144.7522  161.7397 C.3     1  UNL1        0.0955
     11 C         139.5600  145.8846  161.9094 C.3     1  UNL1        0.0233
     12 C         140.4025  140.8192  167.3759 C.ar    1  UNL1        0.1306
     13 C         140.9083  142.2186  167.5655 C.ar    1  UNL1        0.0110
     14 C         140.7398  143.2316  166.4722 C.ar    1  UNL1        0.0032
     15 C         140.0655  142.8454  165.1893 C.ar    1  UNL1        0.0532
     16 C         139.5597  141.4461  164.9996 C.ar    1  UNL1        0.0032
     17 C         139.7282  140.4330  166.0929 C.ar    1  UNL1        0.0110
     18 C         141.5826  142.6049  168.8486 C.3     1  UNL1        0.0218
     19 C         142.8550  141.9700  168.3711 C.3     1  UNL1        0.0045
     20 C         140.3103  143.2397  169.3261 C.3     1  UNL1        0.0045
     21 C         142.2569  142.9912  170.1315 C.3     1  UNL1        0.0045
     22 C         139.2223  139.0336  165.9031 C.3     1  UNL1        0.0218
     23 C         140.5407  138.6379  165.3071 C.3     1  UNL1        0.0045
     24 C         137.9039  139.4293  166.4991 C.3     1  UNL1        0.0045
     25 C         138.7165  137.6343  165.7134 C.3     1  UNL1        0.0045
     26 C         139.6630  139.8329  169.6628 C.3     1  UNL1        0.2524
     27 O         140.5710  139.8062  168.4692 O.3     1  UNL1       -0.4721
     28 C         144.0678  142.2487  158.8746 C.3     1  UNL1        0.0853
     29 C         143.6485  141.0053  158.1478 C.3     1  UNL1        0.0096
     30 C         142.7086  141.0987  156.9824 C.3     1  UNL1        0.0012
     31 C         141.2595  140.7538  157.1582 C.3     1  UNL1        0.0087
     32 C         140.8701  139.4773  157.8430 C.3     1  UNL1        0.0446
     33 C         141.2617  138.1572  157.2479 C.ar    1  UNL1       -0.0183
     34 C         142.5250  137.4803  157.6902 C.ar    1  UNL1       -0.0017
     35 C         142.9166  136.1602  157.0951 C.ar    1  UNL1        0.0293
     36 C         142.0448  135.5171  156.0577 C.ar    1  UNL1        0.1401
     37 F         142.4363  134.1970  155.4626 F       1  UNL1       -0.2042
     38 C         140.7814  136.1940  155.6153 C.ar    1  UNL1        0.0293
     39 C         140.3899  137.5141  156.2104 C.ar    1  UNL1       -0.0017
     40 C         140.0891  139.5209  159.1229 C.ar    1  UNL1       -0.0183
     41 C         140.7317  139.0920  160.4086 C.ar    1  UNL1       -0.0017
     42 C         139.9508  139.1355  161.6885 C.ar    1  UNL1        0.0293
     43 C         138.5271  139.6080  161.6827 C.ar    1  UNL1        0.1401
     44 F         137.7462  139.6515  162.9626 F       1  UNL1       -0.2042
     45 C         137.8844  140.0369  160.3970 C.ar    1  UNL1        0.0293
     46 C         138.6654  139.9933  159.1171 C.ar    1  UNL1       -0.0017
@<TRIPOS>BOND
     1    26    27    1
     2    27    12    1
     3    12    13   ar
     4    13    18    1
     5    18    19    1
     6    18    20    1
     7    18    21    1
     8    13    14   ar
     9    14    15   ar
    10    15     1    1
    11     1     2    2
    12     1     3   am
    13     3     4    1
    14     4     5    1
    15     5     6    1
    16     6     7   am
    17     7     8    2
    18     7    28    1
    19    28    29    1
    20    29    30    1
    21    30    31    1
    22    31    32    1
    23    32    33    1
    24    33    34   ar
    25    34    35   ar
    26    35    36   ar
    27    36    37    1
    28    36    38   ar
    29    38    39   ar
    30    32    40    1
    31    40    41   ar
    32    41    42   ar
    33    42    43   ar
    34    43    44    1
    35    43    45   ar
    36    45    46   ar
    37     6     9    1
    38     9    10    1
    39    10    11    1
    40    15    16   ar
    41    16    17   ar
    42    17    22    1
    43    22    23    1
    44    22    24    1
    45    22    25    1
    46    17    12   ar
    47    10     3    1
    48    39    33   ar
    49    46    40   ar
@<TRIPOS>MOLECULE
*****
 46 49 0 0 0
SMALL
GASTEIGER

@<TRIPOS>ATOM
      1 C         139.8981  143.9702  164.1720 C.2     1  UNL1        0.2490
      2 O         138.9614  145.1104  164.4413 O.2     1  UNL1       -0.2699
      3 N         140.6259  143.8907  162.8629 N.am    1  UNL1       -0.2743
      4 C         141.5627  142.7505  162.5936 C.3     1  UNL1        0.1152
      5 C         142.2905  142.6709  161.2844 C.3     1  UNL1        0.1149
      6 N         142.0815  143.7315  160.2445 N.am    1  UNL1       -0.2761
      7 C         142.8093  143.6519  158.9352 C.2     1  UNL1        0.2257
      8 O         142.6003  144.7125  157.8953 O.2     1  UNL1       -0.2749
      9 C         141.1447  144.8717  160.5137 C.3     1  UNL1        0.1132
     10 C         140.4169  144.9513  161.8229 C.3     1  UNL1        0.0955
     11 C         139.4801  146.0914  162.0921 C.3     1  UNL1        0.0233
     12 C         140.5251  140.7885  167.2919 C.ar    1  UNL1        0.1306
     13 C         139.8406  140.4487  166.0011 C.ar    1  UNL1        0.0110
     14 C         139.6317  141.5093  164.9612 C.ar    1  UNL1        0.0032
     15 C         140.1071  142.9097  165.2120 C.ar    1  UNL1        0.0532
     16 C         140.7916  143.2494  166.5027 C.ar    1  UNL1        0.0032
     17 C         141.0006  142.1888  167.5427 C.ar    1  UNL1        0.0110
     18 C         139.3651  139.0483  165.7503 C.3     1  UNL1        0.0218
     19 C         140.6314  138.7522  165.0027 C.3     1  UNL1        0.0045
     20 C         138.0989  139.3444  166.4979 C.3     1  UNL1        0.0045
     21 C         138.8896  137.6480  165.4995 C.3     1  UNL1        0.0045
     22 C         141.6850  142.5286  168.8335 C.3     1  UNL1        0.0218
     23 C         140.3505  142.7270  169.4889 C.3     1  UNL1        0.0045
     24 C         143.0196  142.3303  168.1780 C.3     1  UNL1        0.0045
     25 C         142.3695  142.8685  170.1242 C.3     1  UNL1        0.0045
     26 C         142.0960  139.1324  168.5325 C.3     1  UNL1        0.2524
     27 O         140.7341  139.7279  168.3318 O.3     1  UNL1       -0.4721
     28 C         143.7461  142.5118  158.6660 C.3     1  UNL1        0.0853
     29 C         143.2939  141.3508  157.8308 C.3     1  UNL1        0.0096
     30 C         142.0959  140.5494  158.2464 C.3     1  UNL1        0.0012
     31 C         140.8535  140.5671  157.4061 C.3     1  UNL1        0.0087
     32 C         139.6245  141.2715  157.8994 C.3     1  UNL1        0.0446
     33 C         138.9637  142.3132  157.0461 C.ar    1  UNL1       -0.0183
     34 C         137.4986  142.2134  156.7403 C.ar    1  UNL1       -0.0017
     35 C         136.8378  143.2551  155.8870 C.ar    1  UNL1        0.0293
     36 C         137.6421  144.3967  155.3394 C.ar    1  UNL1        0.1401
     37 F         136.9813  145.4384  154.4861 F       1  UNL1       -0.2042
     38 C         139.1073  144.4965  155.6452 C.ar    1  UNL1        0.0293
     39 C         139.7680  143.4548  156.4985 C.ar    1  UNL1       -0.0017
     40 C         139.0563  140.9342  159.2460 C.ar    1  UNL1       -0.0183
     41 C         138.6958  142.0307  160.2040 C.ar    1  UNL1       -0.0017
     42 C         138.1276  141.6934  161.5506 C.ar    1  UNL1        0.0293
     43 C         137.9198  140.2596  161.9393 C.ar    1  UNL1        0.1401
     44 F         137.3516  139.9224  163.2859 F       1  UNL1       -0.2042
     45 C         138.2803  139.1631  160.9813 C.ar    1  UNL1        0.0293
     46 C         138.8485  139.5003  159.6347 C.ar    1  UNL1       -0.0017
@<TRIPOS>BOND
     1    26    27    1
     2    27    12    1
     3    12    13   ar
     4    13    18    1
     5    18    19    1
     6    18    20    1
     7    18    21    1
     8    13    14   ar
     9    14    15   ar
    10    15     1    1
    11     1     2    2
    12     1     3   am
    13     3     4    1
    14     4     5    1
    15     5     6    1
    16     6     7   am
    17     7     8    2
    18     7    28    1
    19    28    29    1
    20    29    30    1
    21    30    31    1
    22    31    32    1
    23    32    33    1
    24    33    34   ar
    25    34    35   ar
    26    35    36   ar
    27    36    37    1
    28    36    38   ar
    29    38    39   ar
    30    32    40    1
    31    40    41   ar
    32    41    42   ar
    33    42    43   ar
    34    43    44    1
    35    43    45   ar
    36    45    46   ar
    37     6     9    1
    38     9    10    1
    39    10    11    1
    40    15    16   ar
    41    16    17   ar
    42    17    22    1
    43    22    23    1
    44    22    24    1
    45    22    25    1
    46    17    12   ar
    47    10     3    1
    48    39    33   ar
    49    46    40   ar
