@<TRIPOS>MOLECULE
*****
 33 36 0 0 0
SMALL
GASTEIGER

@<TRIPOS>ATOM
      1 C         139.2956  139.2624  157.7570 C.3     1  UNL1        0.1201
      2 N         139.2489  140.4487  158.6738 N.am    1  UNL1       -0.2538
      3 C         139.2808  141.7905  158.0040 C.2     1  UNL1        0.2712
      4 O         139.3553  141.7686  156.5061 O.2     1  UNL1       -0.2705
      5 C         139.2482  143.1513  158.6342 C.3     1  UNL1        0.2553
      6 N         139.1755  143.5064  160.0898 N.2     1  UNL1       -0.2434
      7 C         139.1176  142.5884  161.2746 C.2     1  UNL1        0.0795
      8 C         139.1180  141.0885  161.2966 C.ar    1  UNL1        0.0310
      9 C         139.0488  140.5610  162.6991 C.ar    1  UNL1        0.0027
     10 C         139.0381  139.0812  162.9440 C.ar    1  UNL1        0.0001
     11 C         139.0966  138.1289  161.7865 C.ar    1  UNL1        0.0013
     12 C         139.1657  138.6565  160.3841 C.ar    1  UNL1        0.0149
     13 C         139.1764  140.1363  160.1391 C.ar    1  UNL1        0.0554
     14 C         139.0503  143.2589  162.6148 C.ar    1  UNL1        0.0174
     15 C         137.7190  143.5533  163.2402 C.ar    1  UNL1        0.0015
     16 C         137.6518  144.2237  164.5803 C.ar    1  UNL1        0.0000
     17 C         138.9158  144.5998  165.2950 C.ar    1  UNL1        0.0000
     18 C         140.2470  144.3055  164.6697 C.ar    1  UNL1        0.0000
     19 C         140.3143  143.6350  163.3296 C.ar    1  UNL1        0.0015
     20 N         139.2943  144.3103  157.6831 N.am    1  UNL1       -0.2762
     21 C         140.5409  145.1364  157.5673 C.2     1  UNL1        0.2476
     22 O         141.7415  144.8035  158.4028 O.2     1  UNL1       -0.2701
     23 H         138.5063  144.5287  157.1348 H       1  UNL1        0.1519
     24 C         140.5870  146.2953  156.6162 C.2     1  UNL1        0.0578
     25 C         139.3273  147.0335  156.2719 C.2     1  UNL1        0.0055
     26 C         139.3734  148.1925  155.3207 C.ar    1  UNL1        0.0108
     27 C         139.9447  148.0119  153.9456 C.ar    1  UNL1        0.0017
     28 C         139.9908  149.1709  152.9945 C.ar    1  UNL1        0.0114
     29 C         139.4656  150.5104  153.4184 C.ar    1  UNL1        0.0585
     30 CL        139.5117  151.6694  152.4673 Cl      1  UNL1       -0.0822
     31 C         138.8943  150.6911  154.7936 C.ar    1  UNL1        0.0228
     32 C         138.8482  149.5321  155.7448 C.ar    1  UNL1        0.0585
     33 CL        138.2769  149.7126  157.1199 Cl      1  UNL1       -0.0822
@<TRIPOS>BOND
     1     1     2    1
     2     2     3   am
     3     3     4    2
     4     3     5    1
     5     5    20    1
     6    20    21   am
     7    21    22    2
     8    21    24    1
     9    24    25    2
    10    25    26    1
    11    26    27   ar
    12    27    28   ar
    13    28    29   ar
    14    29    30    1
    15    29    31   ar
    16    31    32   ar
    17    32    33    1
    18     5     6    1
    19     6     7    2
    20     7    14    1
    21    14    15   ar
    22    15    16   ar
    23    16    17   ar
    24    17    18   ar
    25    18    19   ar
    26     7     8    1
    27     8     9   ar
    28     9    10   ar
    29    10    11   ar
    30    11    12   ar
    31    12    13   ar
    32    13     2    1
    33    32    26   ar
    34    19    14   ar
    35    13     8   ar
    36    20    23    1
@<TRIPOS>MOLECULE
*****
 33 36 0 0 0
SMALL
GASTEIGER

@<TRIPOS>ATOM
      1 C         144.4734  142.4089  158.7150 C.3     1  UNL1        0.1201
      2 N         143.6935  141.3395  159.4208 N.am    1  UNL1       -0.2538
      3 C         143.7014  139.9895  158.7671 C.2     1  UNL1        0.2712
      4 O         144.4880  139.8874  157.4941 O.2     1  UNL1       -0.2705
      5 C         143.0265  138.7281  159.2182 C.3     1  UNL1        0.2553
      6 N         142.1772  138.5052  160.4344 N.2     1  UNL1       -0.2434
      7 C         141.7930  139.4887  161.4997 C.2     1  UNL1        0.0795
      8 C         142.1631  140.9380  161.6122 C.ar    1  UNL1        0.0310
      9 C         141.5661  141.5625  162.8384 C.ar    1  UNL1        0.0027
     10 C         141.8149  143.0108  163.1393 C.ar    1  UNL1        0.0001
     11 C         142.6607  143.8345  162.2140 C.ar    1  UNL1        0.0013
     12 C         143.2578  143.2100  160.9879 C.ar    1  UNL1        0.0149
     13 C         143.0090  141.7617  160.6870 C.ar    1  UNL1        0.0554
     14 C         140.9236  138.9519  162.5980 C.ar    1  UNL1        0.0174
     15 C         141.5298  138.1455  163.7081 C.ar    1  UNL1        0.0015
     16 C         140.6604  137.6087  164.8063 C.ar    1  UNL1        0.0000
     17 C         139.1849  137.8784  164.7944 C.ar    1  UNL1        0.0000
     18 C         138.5787  138.6848  163.6844 C.ar    1  UNL1        0.0000
     19 C         139.4480  139.2216  162.5862 C.ar    1  UNL1        0.0015
     20 N         143.2276  137.5314  158.3365 N.am    1  UNL1       -0.2762
     21 C         142.1607  137.1305  157.3613 C.2     1  UNL1        0.2476
     22 O         140.8927  137.9265  157.2677 O.2     1  UNL1       -0.2701
     23 H         144.0598  137.0090  158.3980 H       1  UNL1        0.1519
     24 C         142.3618  135.9338  156.4797 C.2     1  UNL1        0.0578
     25 C         143.1790  134.7733  156.9652 C.2     1  UNL1        0.0055
     26 C         143.3800  133.5766  156.0835 C.ar    1  UNL1        0.0108
     27 C         142.6565  133.4804  154.7731 C.ar    1  UNL1        0.0017
     28 C         142.8576  132.2836  153.8915 C.ar    1  UNL1        0.0114
     29 C         143.7822  131.1830  154.3202 C.ar    1  UNL1        0.0585
     30 CL        143.9832  129.9863  153.4386 Cl      1  UNL1       -0.0822
     31 C         144.5057  131.2792  155.6307 C.ar    1  UNL1        0.0228
     32 C         144.3047  132.4760  156.5124 C.ar    1  UNL1        0.0585
     33 CL        145.0282  132.5722  157.8228 Cl      1  UNL1       -0.0822
@<TRIPOS>BOND
     1     1     2    1
     2     2     3   am
     3     3     4    2
     4     3     5    1
     5     5    20    1
     6    20    21   am
     7    21    22    2
     8    21    24    1
     9    24    25    2
    10    25    26    1
    11    26    27   ar
    12    27    28   ar
    13    28    29   ar
    14    29    30    1
    15    29    31   ar
    16    31    32   ar
    17    32    33    1
    18     5     6    1
    19     6     7    2
    20     7    14    1
    21    14    15   ar
    22    15    16   ar
    23    16    17   ar
    24    17    18   ar
    25    18    19   ar
    26     7     8    1
    27     8     9   ar
    28     9    10   ar
    29    10    11   ar
    30    11    12   ar
    31    12    13   ar
    32    13     2    1
    33    32    26   ar
    34    19    14   ar
    35    13     8   ar
    36    20    23    1
@<TRIPOS>MOLECULE
*****
 33 36 0 0 0
SMALL
GASTEIGER

@<TRIPOS>ATOM
      1 C         139.8812  146.2471  161.7224 C.3     1  UNL1        0.1201
      2 N         140.6212  144.9613  161.9443 N.am    1  UNL1       -0.2538
      3 C         141.5803  144.5670  160.8606 C.2     1  UNL1        0.2712
      4 O         141.6727  145.5105  159.6982 O.2     1  UNL1       -0.2705
      5 C         142.4594  143.3538  160.7856 C.3     1  UNL1        0.2553
      6 N         142.5964  142.2354  161.7757 N.2     1  UNL1       -0.2434
      7 C         141.8881  142.0540  163.0855 C.2     1  UNL1        0.0795
      8 C         140.8680  142.9461  163.7286 C.ar    1  UNL1        0.0310
      9 C         140.4094  142.3937  165.0456 C.ar    1  UNL1        0.0027
     10 C         139.3869  143.1352  165.8547 C.ar    1  UNL1        0.0001
     11 C         138.8231  144.4291  165.3468 C.ar    1  UNL1        0.0013
     12 C         139.2817  144.9815  164.0299 C.ar    1  UNL1        0.0149
     13 C         140.3042  144.2400  163.2207 C.ar    1  UNL1        0.0554
     14 C         142.2475  140.8168  163.8538 C.ar    1  UNL1        0.0174
     15 C         143.4303  140.8240  164.7763 C.ar    1  UNL1        0.0015
     16 C         143.7897  139.5868  165.5446 C.ar    1  UNL1        0.0000
     17 C         142.9664  138.3425  165.3904 C.ar    1  UNL1        0.0000
     18 C         141.7837  138.3353  164.4679 C.ar    1  UNL1        0.0000
     19 C         141.4242  139.5724  163.6995 C.ar    1  UNL1        0.0015
     20 N         143.3145  143.2447  159.5580 N.am    1  UNL1       -0.2762
     21 C         142.8569  142.4128  158.3968 C.2     1  UNL1        0.2476
     22 O         141.5441  141.6900  158.4630 O.2     1  UNL1       -0.2701
     23 H         144.1761  143.7190  159.5145 H       1  UNL1        0.1519
     24 C         143.7120  142.3036  157.1692 C.2     1  UNL1        0.0578
     25 C         145.1797  142.0225  157.3002 C.2     1  UNL1        0.0055
     26 C         146.0348  141.9133  156.0726 C.ar    1  UNL1        0.0108
     27 C         145.4571  141.3625  154.8027 C.ar    1  UNL1        0.0017
     28 C         146.3122  141.2533  153.5752 C.ar    1  UNL1        0.0114
     29 C         147.7450  141.6949  153.6176 C.ar    1  UNL1        0.0585
     30 CL        148.6002  141.5858  152.3900 Cl      1  UNL1       -0.0822
     31 C         148.3228  142.2458  154.8875 C.ar    1  UNL1        0.0228
     32 C         147.4677  142.3550  156.1151 C.ar    1  UNL1        0.0585
     33 CL        148.0455  142.9058  157.3850 Cl      1  UNL1       -0.0822
@<TRIPOS>BOND
     1     1     2    1
     2     2     3   am
     3     3     4    2
     4     3     5    1
     5     5    20    1
     6    20    21   am
     7    21    22    2
     8    21    24    1
     9    24    25    2
    10    25    26    1
    11    26    27   ar
    12    27    28   ar
    13    28    29   ar
    14    29    30    1
    15    29    31   ar
    16    31    32   ar
    17    32    33    1
    18     5     6    1
    19     6     7    2
    20     7    14    1
    21    14    15   ar
    22    15    16   ar
    23    16    17   ar
    24    17    18   ar
    25    18    19   ar
    26     7     8    1
    27     8     9   ar
    28     9    10   ar
    29    10    11   ar
    30    11    12   ar
    31    12    13   ar
    32    13     2    1
    33    32    26   ar
    34    19    14   ar
    35    13     8   ar
    36    20    23    1
@<TRIPOS>MOLECULE
*****
 33 36 0 0 0
SMALL
GASTEIGER

@<TRIPOS>ATOM
      1 C         139.9047  146.0842  161.3338 C.3     1  UNL1        0.1201
      2 N         140.3358  144.6498  161.4154 N.am    1  UNL1       -0.2538
      3 C         141.3735  144.2244  160.4192 C.2     1  UNL1        0.2712
      4 O         141.8428  145.2896  159.4732 O.2     1  UNL1       -0.2705
      5 C         142.0038  142.8745  160.2441 C.3     1  UNL1        0.2553
      6 N         141.7522  141.6168  161.0218 N.2     1  UNL1       -0.2434
      7 C         140.8081  141.3983  162.1667 C.2     1  UNL1        0.0795
      8 C         139.8825  142.3835  162.8168 C.ar    1  UNL1        0.0310
      9 C         139.1074  141.7518  163.9349 C.ar    1  UNL1        0.0027
     10 C         138.1222  142.5672  164.7187 C.ar    1  UNL1        0.0001
     11 C         137.9120  144.0143  164.3843 C.ar    1  UNL1        0.0013
     12 C         138.6870  144.6460  163.2662 C.ar    1  UNL1        0.0149
     13 C         139.6723  143.8305  162.4824 C.ar    1  UNL1        0.0554
     14 C         140.7869  140.0111  162.7371 C.ar    1  UNL1        0.0174
     15 C         139.7671  139.0197  162.2604 C.ar    1  UNL1        0.0015
     16 C         139.7458  137.6325  162.8308 C.ar    1  UNL1        0.0000
     17 C         140.7444  137.2368  163.8778 C.ar    1  UNL1        0.0000
     18 C         141.7642  138.2281  164.3544 C.ar    1  UNL1        0.0000
     19 C         141.7855  139.6152  163.7841 C.ar    1  UNL1        0.0015
     20 N         143.0201  142.7684  159.1460 N.am    1  UNL1       -0.2762
     21 C         144.4760  142.6360  159.4818 C.2     1  UNL1        0.2476
     22 O         144.9157  142.6096  160.9157 O.2     1  UNL1       -0.2701
     23 H         142.7316  142.7858  158.2049 H       1  UNL1        0.1519
     24 C         145.4924  142.5299  158.3837 C.2     1  UNL1        0.0578
     25 C         145.0725  142.0870  157.0134 C.2     1  UNL1        0.0055
     26 C         146.0888  141.9809  155.9153 C.ar    1  UNL1        0.0108
     27 C         147.5377  142.2372  156.2070 C.ar    1  UNL1        0.0017
     28 C         148.5540  142.1311  155.1089 C.ar    1  UNL1        0.0114
     29 C         148.1215  141.7687  153.7191 C.ar    1  UNL1        0.0585
     30 CL        149.1378  141.6626  152.6210 Cl      1  UNL1       -0.0822
     31 C         146.6726  141.5123  153.4273 C.ar    1  UNL1        0.0228
     32 C         145.6563  141.6185  154.5254 C.ar    1  UNL1        0.0585
     33 CL        144.2074  141.3621  154.2337 Cl      1  UNL1       -0.0822
@<TRIPOS>BOND
     1     1     2    1
     2     2     3   am
     3     3     4    2
     4     3     5    1
     5     5    20    1
     6    20    21   am
     7    21    22    2
     8    21    24    1
     9    24    25    2
    10    25    26    1
    11    26    27   ar
    12    27    28   ar
    13    28    29   ar
    14    29    30    1
    15    29    31   ar
    16    31    32   ar
    17    32    33    1
    18     5     6    1
    19     6     7    2
    20     7    14    1
    21    14    15   ar
    22    15    16   ar
    23    16    17   ar
    24    17    18   ar
    25    18    19   ar
    26     7     8    1
    27     8     9   ar
    28     9    10   ar
    29    10    11   ar
    30    11    12   ar
    31    12    13   ar
    32    13     2    1
    33    32    26   ar
    34    19    14   ar
    35    13     8   ar
    36    20    23    1
@<TRIPOS>MOLECULE
*****
 33 36 0 0 0
SMALL
GASTEIGER

@<TRIPOS>ATOM
      1 C         138.3428  137.8647  165.7591 C.3     1  UNL1        0.1201
      2 N         139.1433  138.9320  165.0734 N.am    1  UNL1       -0.2538
      3 C         139.2526  138.8068  163.5826 C.2     1  UNL1        0.2712
      4 O         138.5470  137.6311  162.9747 O.2     1  UNL1       -0.2705
      5 C         139.9743  139.7021  162.6194 C.3     1  UNL1        0.2553
      6 N         140.7649  140.9436  162.9091 N.2     1  UNL1       -0.2434
      7 C         141.0290  141.5963  164.2336 C.2     1  UNL1        0.0795
      8 C         140.5679  141.1689  165.5954 C.ar    1  UNL1        0.0310
      9 C         141.0563  142.1072  166.6589 C.ar    1  UNL1        0.0027
     10 C         140.7054  141.8598  168.0961 C.ar    1  UNL1        0.0001
     11 C         139.8662  140.6740  168.4699 C.ar    1  UNL1        0.0013
     12 C         139.3778  139.7357  167.4064 C.ar    1  UNL1        0.0149
     13 C         139.7286  139.9831  165.9692 C.ar    1  UNL1        0.0554
     14 C         141.8649  142.8410  164.1905 C.ar    1  UNL1        0.0174
     15 C         143.3279  142.7737  164.5149 C.ar    1  UNL1        0.0015
     16 C         144.1637  144.0185  164.4718 C.ar    1  UNL1        0.0000
     17 C         143.5366  145.3306  164.1043 C.ar    1  UNL1        0.0000
     18 C         142.0738  145.3980  163.7798 C.ar    1  UNL1        0.0000
     19 C         141.2378  144.1533  163.8229 C.ar    1  UNL1        0.0015
     20 N         139.8949  139.3032  161.1756 N.am    1  UNL1       -0.2762
     21 C         141.1063  138.7556  160.4811 C.2     1  UNL1        0.2476
     22 O         142.3973  138.6069  161.2304 O.2     1  UNL1       -0.2701
     23 H         139.0476  139.4008  160.6839 H       1  UNL1        0.1519
     24 C         141.0269  138.3567  159.0373 C.2     1  UNL1        0.0578
     25 C         142.2492  137.8495  158.3310 C.2     1  UNL1        0.0055
     26 C         142.1698  137.4506  156.8872 C.ar    1  UNL1        0.0108
     27 C         141.5872  138.3959  155.8789 C.ar    1  UNL1        0.0017
     28 C         141.5078  137.9970  154.4351 C.ar    1  UNL1        0.0114
     29 C         142.0110  136.6528  153.9996 C.ar    1  UNL1        0.0585
     30 CL        141.9316  136.2539  152.5558 Cl      1  UNL1       -0.0822
     31 C         142.5937  135.7073  155.0080 C.ar    1  UNL1        0.0228
     32 C         142.6731  136.1062  156.4518 C.ar    1  UNL1        0.0585
     33 CL        143.2557  135.1609  157.4601 Cl      1  UNL1       -0.0822
@<TRIPOS>BOND
     1     1     2    1
     2     2     3   am
     3     3     4    2
     4     3     5    1
     5     5    20    1
     6    20    21   am
     7    21    22    2
     8    21    24    1
     9    24    25    2
    10    25    26    1
    11    26    27   ar
    12    27    28   ar
    13    28    29   ar
    14    29    30    1
    15    29    31   ar
    16    31    32   ar
    17    32    33    1
    18     5     6    1
    19     6     7    2
    20     7    14    1
    21    14    15   ar
    22    15    16   ar
    23    16    17   ar
    24    17    18   ar
    25    18    19   ar
    26     7     8    1
    27     8     9   ar
    28     9    10   ar
    29    10    11   ar
    30    11    12   ar
    31    12    13   ar
    32    13     2    1
    33    32    26   ar
    34    19    14   ar
    35    13     8   ar
    36    20    23    1
@<TRIPOS>MOLECULE
*****
 33 36 0 0 0
SMALL
GASTEIGER

@<TRIPOS>ATOM
      1 C         138.8347  142.3427  158.1031 C.3     1  UNL1        0.1201
      2 N         140.0634  142.5368  158.9414 N.am    1  UNL1       -0.2538
      3 C         141.3639  142.5598  158.1944 C.2     1  UNL1        0.2712
      4 O         141.2639  142.3856  156.7079 O.2     1  UNL1       -0.2705
      5 C         142.7513  142.7340  158.7374 C.3     1  UNL1        0.2553
      6 N         143.1808  142.9281  160.1615 N.2     1  UNL1       -0.2434
      7 C         142.3289  142.9961  161.3942 C.2     1  UNL1        0.0795
      8 C         140.8372  142.8867  161.5074 C.ar    1  UNL1        0.0310
      9 C         140.3853  143.0089  162.9325 C.ar    1  UNL1        0.0027
     10 C         138.9252  142.9267  163.2659 C.ar    1  UNL1        0.0001
     11 C         137.9169  142.7223  162.1743 C.ar    1  UNL1        0.0013
     12 C         138.3688  142.6001  160.7493 C.ar    1  UNL1        0.0149
     13 C         139.8289  142.6823  160.4158 C.ar    1  UNL1        0.0554
     14 C         143.0662  143.2005  162.6843 C.ar    1  UNL1        0.0174
     15 C         143.2996  144.5885  163.2031 C.ar    1  UNL1        0.0015
     16 C         144.0369  144.7930  164.4932 C.ar    1  UNL1        0.0000
     17 C         144.5409  143.6093  165.2647 C.ar    1  UNL1        0.0000
     18 C         144.3076  142.2215  164.7461 C.ar    1  UNL1        0.0000
     19 C         143.5703  142.0169  163.4559 C.ar    1  UNL1        0.0015
     20 N         143.8552  142.7109  157.7221 N.am    1  UNL1       -0.2762
     21 C         144.6550  141.4594  157.5121 C.2     1  UNL1        0.2476
     22 O         144.3509  140.2309  158.3174 O.2     1  UNL1       -0.2701
     23 H         144.0548  143.5171  157.1936 H       1  UNL1        0.1519
     24 C         145.7589  141.4363  156.4968 C.2     1  UNL1        0.0578
     25 C         146.7486  142.5621  156.4392 C.2     1  UNL1        0.0055
     26 C         147.8525  142.5390  155.4239 C.ar    1  UNL1        0.0108
     27 C         149.0761  141.7057  155.6651 C.ar    1  UNL1        0.0017
     28 C         150.1800  141.6826  154.6498 C.ar    1  UNL1        0.0114
     29 C         150.0603  142.4929  153.3933 C.ar    1  UNL1        0.0585
     30 CL        151.1642  142.4698  152.3779 Cl      1  UNL1       -0.0822
     31 C         148.8367  143.3263  153.1519 C.ar    1  UNL1        0.0228
     32 C         147.7328  143.3494  154.1672 C.ar    1  UNL1        0.0585
     33 CL        146.5092  144.1828  153.9260 Cl      1  UNL1       -0.0822
@<TRIPOS>BOND
     1     1     2    1
     2     2     3   am
     3     3     4    2
     4     3     5    1
     5     5    20    1
     6    20    21   am
     7    21    22    2
     8    21    24    1
     9    24    25    2
    10    25    26    1
    11    26    27   ar
    12    27    28   ar
    13    28    29   ar
    14    29    30    1
    15    29    31   ar
    16    31    32   ar
    17    32    33    1
    18     5     6    1
    19     6     7    2
    20     7    14    1
    21    14    15   ar
    22    15    16   ar
    23    16    17   ar
    24    17    18   ar
    25    18    19   ar
    26     7     8    1
    27     8     9   ar
    28     9    10   ar
    29    10    11   ar
    30    11    12   ar
    31    12    13   ar
    32    13     2    1
    33    32    26   ar
    34    19    14   ar
    35    13     8   ar
    36    20    23    1
@<TRIPOS>MOLECULE
*****
 33 36 0 0 0
SMALL
GASTEIGER

@<TRIPOS>ATOM
      1 C         143.9146  140.5969  159.2336 C.3     1  UNL1        0.1201
      2 N         142.9460  141.5412  159.8817 N.am    1  UNL1       -0.2538
      3 C         142.7160  142.8352  159.1588 C.2     1  UNL1        0.2712
      4 O         143.4850  143.0138  157.8834 O.2     1  UNL1       -0.2705
      5 C         141.8186  143.9742  159.5427 C.3     1  UNL1        0.2553
      6 N         140.9296  144.1006  160.7443 N.2     1  UNL1       -0.2434
      7 C         140.7185  143.1190  161.8587 C.2     1  UNL1        0.0795
      8 C         141.3441  141.7687  162.0469 C.ar    1  UNL1        0.0310
      9 C         140.8568  141.1092  163.3029 C.ar    1  UNL1        0.0027
     10 C         141.3609  139.7474  163.6790 C.ar    1  UNL1        0.0001
     11 C         142.3522  139.0452  162.7991 C.ar    1  UNL1        0.0013
     12 C         142.8395  139.7048  161.5432 C.ar    1  UNL1        0.0149
     13 C         142.3355  141.0665  161.1670 C.ar    1  UNL1        0.0554
     14 C         139.7542  143.5439  162.9262 C.ar    1  UNL1        0.0174
     15 C         138.3046  143.1737  162.8179 C.ar    1  UNL1        0.0015
     16 C         137.3402  143.5986  163.8854 C.ar    1  UNL1        0.0000
     17 C         137.8255  144.3937  165.0612 C.ar    1  UNL1        0.0000
     18 C         139.2749  144.7639  165.1694 C.ar    1  UNL1        0.0000
     19 C         140.2394  144.3390  164.1020 C.ar    1  UNL1        0.0015
     20 N         141.8090  145.1412  158.6004 N.am    1  UNL1       -0.2762
     21 C         140.7326  145.2581  157.5623 C.2     1  UNL1        0.2476
     22 O         139.6658  144.2079  157.4665 O.2     1  UNL1       -0.2701
     23 H         142.5091  145.8305  158.6633 H       1  UNL1        0.1519
     24 C         140.7229  146.4251  156.6200 C.2     1  UNL1        0.0578
     25 C         139.4259  147.0862  156.2581 C.2     1  UNL1        0.0055
     26 C         139.4162  148.2532  155.3158 C.ar    1  UNL1        0.0108
     27 C         139.9912  148.1094  153.9379 C.ar    1  UNL1        0.0017
     28 C         139.9816  149.2764  152.9956 C.ar    1  UNL1        0.0114
     29 C         139.3969  150.5873  153.4312 C.ar    1  UNL1        0.0585
     30 CL        139.3873  151.7543  152.4889 Cl      1  UNL1       -0.0822
     31 C         138.8219  150.7312  154.8092 C.ar    1  UNL1        0.0228
     32 C         138.8316  149.5641  155.7515 C.ar    1  UNL1        0.0585
     33 CL        138.2566  149.7080  157.1294 Cl      1  UNL1       -0.0822
@<TRIPOS>BOND
     1     1     2    1
     2     2     3   am
     3     3     4    2
     4     3     5    1
     5     5    20    1
     6    20    21   am
     7    21    22    2
     8    21    24    1
     9    24    25    2
    10    25    26    1
    11    26    27   ar
    12    27    28   ar
    13    28    29   ar
    14    29    30    1
    15    29    31   ar
    16    31    32   ar
    17    32    33    1
    18     5     6    1
    19     6     7    2
    20     7    14    1
    21    14    15   ar
    22    15    16   ar
    23    16    17   ar
    24    17    18   ar
    25    18    19   ar
    26     7     8    1
    27     8     9   ar
    28     9    10   ar
    29    10    11   ar
    30    11    12   ar
    31    12    13   ar
    32    13     2    1
    33    32    26   ar
    34    19    14   ar
    35    13     8   ar
    36    20    23    1
@<TRIPOS>MOLECULE
*****
 33 36 0 0 0
SMALL
GASTEIGER

@<TRIPOS>ATOM
      1 C         138.3132  137.9559  166.0083 C.3     1  UNL1        0.1201
      2 N         139.1237  138.9931  165.2891 N.am    1  UNL1       -0.2538
      3 C         139.2460  138.8098  163.8054 C.2     1  UNL1        0.2712
      4 O         138.5418  137.6135  163.2371 O.2     1  UNL1       -0.2705
      5 C         139.9796  139.6646  162.8148 C.3     1  UNL1        0.2553
      6 N         140.7719  140.9139  163.0633 N.2     1  UNL1       -0.2434
      7 C         141.0263  141.6167  164.3638 C.2     1  UNL1        0.0795
      8 C         140.5513  141.2441  165.7370 C.ar    1  UNL1        0.0310
      9 C         141.0333  142.2215  166.7676 C.ar    1  UNL1        0.0027
     10 C         140.6685  142.0313  168.2101 C.ar    1  UNL1        0.0001
     11 C         139.8217  140.8636  168.6219 C.ar    1  UNL1        0.0013
     12 C         139.3397  139.8862  167.5912 C.ar    1  UNL1        0.0149
     13 C         139.7045  140.0764  166.1488 C.ar    1  UNL1        0.0554
     14 C         141.8669  142.8562  164.2801 C.ar    1  UNL1        0.0174
     15 C         141.2424  144.1604  163.8810 C.ar    1  UNL1        0.0015
     16 C         142.0831  145.4000  163.7973 C.ar    1  UNL1        0.0000
     17 C         143.5481  145.3353  164.1126 C.ar    1  UNL1        0.0000
     18 C         144.1725  144.0312  164.5117 C.ar    1  UNL1        0.0000
     19 C         143.3320  142.7917  164.5954 C.ar    1  UNL1        0.0015
     20 N         139.9119  139.2101  161.3870 N.am    1  UNL1       -0.2762
     21 C         141.1480  138.7110  160.6993 C.2     1  UNL1        0.2476
     22 O         142.4519  138.6663  161.4396 O.2     1  UNL1       -0.2701
     23 H         139.0562  139.2395  160.9011 H       1  UNL1        0.1519
     24 C         141.0804  138.2565  159.2715 C.2     1  UNL1        0.0578
     25 C         139.9500  138.7065  158.3940 C.2     1  UNL1        0.0055
     26 C         139.8823  138.2520  156.9661 C.ar    1  UNL1        0.0108
     27 C         140.6482  137.0390  156.5280 C.ar    1  UNL1        0.0017
     28 C         140.5805  136.5845  155.1001 C.ar    1  UNL1        0.0114
     29 C         139.7469  137.3430  154.1103 C.ar    1  UNL1        0.0585
     30 CL        139.6793  136.8885  152.6824 Cl      1  UNL1       -0.0822
     31 C         138.9810  138.5561  154.5484 C.ar    1  UNL1        0.0228
     32 C         139.0487  139.0106  155.9763 C.ar    1  UNL1        0.0585
     33 CL        138.2828  140.2236  156.4143 Cl      1  UNL1       -0.0822
@<TRIPOS>BOND
     1     1     2    1
     2     2     3   am
     3     3     4    2
     4     3     5    1
     5     5    20    1
     6    20    21   am
     7    21    22    2
     8    21    24    1
     9    24    25    2
    10    25    26    1
    11    26    27   ar
    12    27    28   ar
    13    28    29   ar
    14    29    30    1
    15    29    31   ar
    16    31    32   ar
    17    32    33    1
    18     5     6    1
    19     6     7    2
    20     7    14    1
    21    14    15   ar
    22    15    16   ar
    23    16    17   ar
    24    17    18   ar
    25    18    19   ar
    26     7     8    1
    27     8     9   ar
    28     9    10   ar
    29    10    11   ar
    30    11    12   ar
    31    12    13   ar
    32    13     2    1
    33    32    26   ar
    34    19    14   ar
    35    13     8   ar
    36    20    23    1
@<TRIPOS>MOLECULE
*****
 33 36 0 0 0
SMALL
GASTEIGER

@<TRIPOS>ATOM
      1 C         138.1133  144.2847  164.6004 C.3     1  UNL1        0.1201
      2 N         138.9826  143.5224  163.6447 N.am    1  UNL1       -0.2538
      3 C         139.1676  144.1469  162.2935 C.2     1  UNL1        0.2712
      4 O         138.4589  145.4509  162.0766 O.2     1  UNL1       -0.2705
      5 C         139.9676  143.6396  161.1305 C.3     1  UNL1        0.2553
      6 N         140.7802  142.3826  161.0314 N.2     1  UNL1       -0.2434
      7 C         140.9934  141.3225  162.0710 C.2     1  UNL1        0.0795
      8 C         140.4468  141.2575  163.4663 C.ar    1  UNL1        0.0310
      9 C         140.9068  140.0198  164.1780 C.ar    1  UNL1        0.0027
     10 C         140.4718  139.7611  165.5900 C.ar    1  UNL1        0.0001
     11 C         139.5769  140.7402  166.2904 C.ar    1  UNL1        0.0013
     12 C         139.1169  141.9779  165.5788 C.ar    1  UNL1        0.0149
     13 C         139.5518  142.2365  164.1667 C.ar    1  UNL1        0.0554
     14 C         141.8691  140.1758  161.6610 C.ar    1  UNL1        0.0174
     15 C         141.2695  138.9786  160.9848 C.ar    1  UNL1        0.0015
     16 C         142.1452  137.8318  160.5748 C.ar    1  UNL1        0.0000
     17 C         143.6206  137.8822  160.8411 C.ar    1  UNL1        0.0000
     18 C         144.2202  139.0793  161.5173 C.ar    1  UNL1        0.0000
     19 C         143.3445  140.2261  161.9273 C.ar    1  UNL1        0.0015
     20 N         139.9532  144.5035  159.9043 N.am    1  UNL1       -0.2762
     21 C         141.2446  144.9207  159.2656 C.2     1  UNL1        0.2476
     22 O         142.5506  144.4740  159.8529 O.2     1  UNL1       -0.2701
     23 H         139.0961  144.7967  159.5188 H       1  UNL1        0.1519
     24 C         141.2302  145.7846  158.0394 C.2     1  UNL1        0.0578
     25 C         139.9615  145.9558  157.2575 C.2     1  UNL1        0.0055
     26 C         139.9471  146.8197  156.0313 C.ar    1  UNL1        0.0108
     27 C         140.6639  146.3741  154.7914 C.ar    1  UNL1        0.0017
     28 C         140.6495  147.2381  153.5653 C.ar    1  UNL1        0.0114
     29 C         139.9182  148.5476  153.5791 C.ar    1  UNL1        0.0585
     30 CL        139.9037  149.4115  152.3529 Cl      1  UNL1       -0.0822
     31 C         139.2013  148.9933  154.8191 C.ar    1  UNL1        0.0228
     32 C         139.2157  148.1294  156.0452 C.ar    1  UNL1        0.0585
     33 CL        138.4989  148.5750  157.2851 Cl      1  UNL1       -0.0822
@<TRIPOS>BOND
     1     1     2    1
     2     2     3   am
     3     3     4    2
     4     3     5    1
     5     5    20    1
     6    20    21   am
     7    21    22    2
     8    21    24    1
     9    24    25    2
    10    25    26    1
    11    26    27   ar
    12    27    28   ar
    13    28    29   ar
    14    29    30    1
    15    29    31   ar
    16    31    32   ar
    17    32    33    1
    18     5     6    1
    19     6     7    2
    20     7    14    1
    21    14    15   ar
    22    15    16   ar
    23    16    17   ar
    24    17    18   ar
    25    18    19   ar
    26     7     8    1
    27     8     9   ar
    28     9    10   ar
    29    10    11   ar
    30    11    12   ar
    31    12    13   ar
    32    13     2    1
    33    32    26   ar
    34    19    14   ar
    35    13     8   ar
    36    20    23    1
