@<TRIPOS>MOLECULE
*****
 33 37 0 0 0
SMALL
GASTEIGER

@<TRIPOS>ATOM
      1 C         139.5861  139.4928  160.3841 C.3     1  UNL1        0.2052
      2 C         139.9251  138.3469  159.4774 C.3     1  UNL1        0.1391
      3 N         141.2828  138.9381  159.2379 N.am    1  UNL1       -0.2647
      4 C         142.4826  138.5460  158.4275 C.2     1  UNL1        0.3047
      5 O         143.7061  139.4136  158.4308 O.2     1  UNL1       -0.2647
      6 C         140.9437  140.0840  160.1446 C.3     1  UNL1        0.1391
      7 C         142.4587  137.2861  157.6137 C.ar    1  UNL1        0.3043
      8 N         141.5443  136.9990  156.4599 N.ar    1  UNL1       -0.1021
      9 N         141.8655  135.6277  155.9440 N.ar    1  UNL1       -0.1068
     10 C         142.9785  135.0673  156.7790 C.ar    1  UNL1        0.2501
     11 O         143.3452  136.0922  157.8110 O.2     1  UNL1       -0.4122
     12 C         143.6134  133.7186  156.6114 C.ar    1  UNL1        0.0551
     13 C         143.3738  132.9270  155.3601 C.ar    1  UNL1        0.0047
     14 C         144.0087  131.5783  155.1926 C.ar    1  UNL1        0.0002
     15 C         144.8833  131.0213  156.2764 C.ar    1  UNL1        0.0000
     16 C         145.1230  131.8129  157.5278 C.ar    1  UNL1        0.0002
     17 C         144.4881  133.1615  157.6953 C.ar    1  UNL1        0.0047
     18 O         138.3864  139.8850  161.1945 O.3     1  UNL1       -0.4756
     19 C         138.3926  139.2920  165.6552 C.ar    1  UNL1       -0.0059
     20 C         138.0709  140.6386  165.0781 C.ar    1  UNL1        0.0002
     21 C         138.0689  140.8363  163.5912 C.ar    1  UNL1        0.0366
     22 C         138.3884  139.6873  162.6814 C.ar    1  UNL1        0.1385
     23 C         138.7100  138.3407  163.2585 C.ar    1  UNL1        0.0366
     24 C         138.7121  138.1430  164.7454 C.ar    1  UNL1        0.0002
     25 C         138.3946  139.0943  167.1422 C.3     1  UNL1        0.0992
     26 C         141.8296  141.3322  170.5531 C.3     1  UNL1        0.0308
     27 C         140.6552  140.7307  169.8398 C.3     1  UNL1        0.1044
     28 O         139.9388  140.9878  171.1323 O.3     1  UNL1       -0.3853
     29 C         141.6171  140.5993  168.6963 C.3     1  UNL1        0.0456
     30 C         140.8874  139.9703  167.5466 C.3     1  UNL1        0.0749
     31 N         139.4744  139.7130  167.9795 N.3     1  UNL1       -0.2669
     32 C         139.3310  140.1829  169.3968 C.3     1  UNL1        0.0996
     33 H         140.5503  141.3955  171.7654 H       1  UNL1        0.2103
@<TRIPOS>BOND
     1    26    27    1
     2    27    28    1
     3    27    29    1
     4    29    30    1
     5    30    31    1
     6    31    25    1
     7    25    19    1
     8    19    20   ar
     9    20    21   ar
    10    21    22   ar
    11    22    18    1
    12    18     1    1
    13     1     2    1
    14     2     3    1
    15     3     4   am
    16     4     5    2
    17     4     7    1
    18     7     8   ar
    19     8     9   ar
    20     9    10   ar
    21    10    12    1
    22    12    13   ar
    23    13    14   ar
    24    14    15   ar
    25    15    16   ar
    26    16    17   ar
    27    10    11   ar
    28     3     6    1
    29    22    23   ar
    30    23    24   ar
    31    31    32    1
    32    32    27    1
    33    24    19   ar
    34     6     1    1
    35    11     7   ar
    36    17    12   ar
    37    28    33    1
@<TRIPOS>MOLECULE
*****
 33 37 0 0 0
SMALL
GASTEIGER

@<TRIPOS>ATOM
      1 C         139.1428  139.3868  162.1487 C.3     1  UNL1        0.2052
      2 C         139.2996  139.8839  163.5552 C.3     1  UNL1        0.1391
      3 N         138.8170  138.5626  164.0760 N.am    1  UNL1       -0.2647
      4 C         138.5867  137.9798  165.4389 C.2     1  UNL1        0.3047
      5 O         138.0800  136.5748  165.5779 O.2     1  UNL1       -0.2647
      6 C         138.6603  138.0655  162.6695 C.3     1  UNL1        0.1391
      7 C         138.8630  138.8020  166.6627 C.ar    1  UNL1        0.3043
      8 N         137.9606  138.9426  167.8525 N.ar    1  UNL1       -0.1021
      9 N         138.6301  139.8554  168.8367 N.ar    1  UNL1       -0.1068
     10 C         139.9463  140.2788  168.2550 C.ar    1  UNL1        0.2501
     11 O         140.0903  139.6278  166.9113 O.2     1  UNL1       -0.4122
     12 C         140.9435  141.1929  168.9031 C.ar    1  UNL1        0.0551
     13 C         140.4974  142.5070  169.4723 C.ar    1  UNL1        0.0047
     14 C         141.4946  143.4211  170.1204 C.ar    1  UNL1        0.0002
     15 C         142.9380  143.0210  170.1994 C.ar    1  UNL1        0.0000
     16 C         143.3843  141.7068  169.6303 C.ar    1  UNL1        0.0002
     17 C         142.3871  140.7928  168.9821 C.ar    1  UNL1        0.0047
     18 O         139.3731  139.9696  160.7859 O.3     1  UNL1       -0.4756
     19 C         141.9738  137.8014  157.8218 C.ar    1  UNL1       -0.0059
     20 C         142.4610  138.0277  159.2223 C.ar    1  UNL1        0.0002
     21 C         141.5941  138.7504  160.2103 C.ar    1  UNL1        0.0366
     22 C         140.2400  139.2468  159.7978 C.ar    1  UNL1        0.1385
     23 C         139.7529  139.0205  158.3973 C.ar    1  UNL1        0.0366
     24 C         140.6198  138.2978  157.4093 C.ar    1  UNL1        0.0002
     25 C         142.8407  137.0787  156.8338 C.3     1  UNL1        0.0992
     26 C         142.9271  131.7463  156.8341 C.3     1  UNL1        0.0308
     27 C         143.1187  133.2147  157.0731 C.3     1  UNL1        0.1044
     28 O         144.0788  132.7571  158.1307 O.3     1  UNL1       -0.3853
     29 C         142.1184  133.3653  155.9655 C.3     1  UNL1        0.0456
     30 C         141.8925  134.8311  155.7410 C.3     1  UNL1        0.0749
     31 N         142.7532  135.5864  156.7099 N.3     1  UNL1       -0.2669
     32 C         143.5110  134.5874  157.5332 C.3     1  UNL1        0.0996
     33 H         144.1068  131.7876  158.1444 H       1  UNL1        0.2103
@<TRIPOS>BOND
     1    26    27    1
     2    27    28    1
     3    27    29    1
     4    29    30    1
     5    30    31    1
     6    31    25    1
     7    25    19    1
     8    19    20   ar
     9    20    21   ar
    10    21    22   ar
    11    22    18    1
    12    18     1    1
    13     1     2    1
    14     2     3    1
    15     3     4   am
    16     4     5    2
    17     4     7    1
    18     7     8   ar
    19     8     9   ar
    20     9    10   ar
    21    10    12    1
    22    12    13   ar
    23    13    14   ar
    24    14    15   ar
    25    15    16   ar
    26    16    17   ar
    27    10    11   ar
    28     3     6    1
    29    22    23   ar
    30    23    24   ar
    31    31    32    1
    32    32    27    1
    33    24    19   ar
    34     6     1    1
    35    11     7   ar
    36    17    12   ar
    37    28    33    1
@<TRIPOS>MOLECULE
*****
 33 37 0 0 0
SMALL
GASTEIGER

@<TRIPOS>ATOM
      1 C         140.6957  145.1277  161.2857 C.3     1  UNL1        0.2052
      2 C         140.1870  145.7823  160.0356 C.3     1  UNL1        0.1391
      3 N         140.2858  144.4733  159.3099 N.am    1  UNL1       -0.2647
      4 C         139.9960  144.0104  157.9128 C.2     1  UNL1        0.3047
      5 O         140.2231  142.5766  157.5355 O.2     1  UNL1       -0.2647
      6 C         140.7945  143.8187  160.5600 C.3     1  UNL1        0.1391
      7 C         139.4790  144.9815  156.8931 C.ar    1  UNL1        0.3043
      8 N         138.5747  144.6535  155.7423 N.ar    1  UNL1       -0.1021
      9 N         138.3124  145.9203  154.9832 N.ar    1  UNL1       -0.1068
     10 C         139.0547  147.0313  155.6649 C.ar    1  UNL1        0.2501
     11 O         139.7757  146.4511  156.8454 O.2     1  UNL1       -0.4122
     12 C         139.0728  148.4699  155.2407 C.ar    1  UNL1        0.0551
     13 C         138.4777  149.5216  156.1294 C.ar    1  UNL1        0.0047
     14 C         138.4958  150.9603  155.7052 C.ar    1  UNL1        0.0002
     15 C         139.1090  151.3473  154.3922 C.ar    1  UNL1        0.0000
     16 C         139.7041  150.2957  153.5033 C.ar    1  UNL1        0.0002
     17 C         139.6860  148.8571  153.9275 C.ar    1  UNL1        0.0047
     18 O         140.9855  145.5905  162.6828 O.3     1  UNL1       -0.4756
     19 C         141.8600  142.5826  165.9135 C.ar    1  UNL1       -0.0059
     20 C         142.9461  143.0069  164.9699 C.ar    1  UNL1        0.0002
     21 C         142.6546  144.0095  163.8930 C.ar    1  UNL1        0.0366
     22 C         141.2770  144.5878  163.7597 C.ar    1  UNL1        0.1385
     23 C         140.1909  144.1635  164.7033 C.ar    1  UNL1        0.0366
     24 C         140.4824  143.1609  165.7802 C.ar    1  UNL1        0.0002
     25 C         142.1515  141.5799  166.9904 C.3     1  UNL1        0.0992
     26 C         138.2075  140.0203  170.2237 C.3     1  UNL1        0.0308
     27 C         139.1863  140.2449  169.1095 C.3     1  UNL1        0.1044
     28 O         138.3737  139.2049  168.3970 O.3     1  UNL1       -0.3853
     29 C         139.7944  141.2380  170.0551 C.3     1  UNL1        0.0456
     30 C         140.9792  141.8590  169.3763 C.3     1  UNL1        0.0749
     31 N         141.1034  141.2497  168.0113 N.3     1  UNL1       -0.2669
     32 C         139.9953  140.2521  167.8464 C.3     1  UNL1        0.0996
     33 H         137.6505  138.9096  168.9720 H       1  UNL1        0.2103
@<TRIPOS>BOND
     1    26    27    1
     2    27    28    1
     3    27    29    1
     4    29    30    1
     5    30    31    1
     6    31    25    1
     7    25    19    1
     8    19    20   ar
     9    20    21   ar
    10    21    22   ar
    11    22    18    1
    12    18     1    1
    13     1     2    1
    14     2     3    1
    15     3     4   am
    16     4     5    2
    17     4     7    1
    18     7     8   ar
    19     8     9   ar
    20     9    10   ar
    21    10    12    1
    22    12    13   ar
    23    13    14   ar
    24    14    15   ar
    25    15    16   ar
    26    16    17   ar
    27    10    11   ar
    28     3     6    1
    29    22    23   ar
    30    23    24   ar
    31    31    32    1
    32    32    27    1
    33    24    19   ar
    34     6     1    1
    35    11     7   ar
    36    17    12   ar
    37    28    33    1
@<TRIPOS>MOLECULE
*****
 33 37 0 0 0
SMALL
GASTEIGER

@<TRIPOS>ATOM
      1 C         140.6885  145.2194  161.2543 C.3     1  UNL1        0.2052
      2 C         140.1248  145.8791  160.0308 C.3     1  UNL1        0.1391
      3 N         140.4696  144.6664  159.2181 N.am    1  UNL1       -0.2647
      4 C         140.3147  144.2753  157.7782 C.2     1  UNL1        0.3047
      5 O         140.7936  142.9332  157.3099 O.2     1  UNL1       -0.2647
      6 C         141.0333  144.0067  160.4416 C.3     1  UNL1        0.1391
      7 C         139.6810  145.2264  156.8067 C.ar    1  UNL1        0.3043
      8 N         138.6118  144.8872  155.8109 N.ar    1  UNL1       -0.1021
      9 N         138.2752  146.1348  155.0492 N.ar    1  UNL1       -0.1068
     10 C         139.1363  147.2450  155.5744 C.ar    1  UNL1        0.2501
     11 O         140.0052  146.6837  156.6607 O.2     1  UNL1       -0.4122
     12 C         139.1297  148.6671  155.0971 C.ar    1  UNL1        0.0551
     13 C         139.7392  149.0163  153.7718 C.ar    1  UNL1        0.0047
     14 C         139.7327  150.4384  153.2946 C.ar    1  UNL1        0.0002
     15 C         139.1166  151.5112  154.1427 C.ar    1  UNL1        0.0000
     16 C         138.5070  151.1621  155.4680 C.ar    1  UNL1        0.0002
     17 C         138.5136  149.7400  155.9453 C.ar    1  UNL1        0.0047
     18 O         140.8434  145.6105  162.6941 O.3     1  UNL1       -0.4756
     19 C         142.6761  142.7282  165.6239 C.ar    1  UNL1       -0.0059
     20 C         141.1843  142.8313  165.5066 C.ar    1  UNL1        0.0002
     21 C         140.5734  143.7920  164.5300 C.ar    1  UNL1        0.0366
     22 C         141.4543  144.6497  163.6708 C.ar    1  UNL1        0.1385
     23 C         142.9462  144.5466  163.7881 C.ar    1  UNL1        0.0366
     24 C         143.5570  143.5859  164.7646 C.ar    1  UNL1        0.0002
     25 C         143.2870  141.7674  166.6005 C.3     1  UNL1        0.0992
     26 C         141.1367  141.2060  171.4485 C.3     1  UNL1        0.0308
     27 C         141.8983  141.6119  170.2216 C.3     1  UNL1        0.1044
     28 O         142.4634  142.6752  171.1159 O.3     1  UNL1       -0.3853
     29 C         141.1739  140.4636  169.5838 C.3     1  UNL1        0.0456
     30 C         141.6060  140.3821  168.1497 C.3     1  UNL1        0.0749
     31 N         142.5974  141.4800  167.9012 N.3     1  UNL1       -0.2669
     32 C         142.7780  142.2400  169.1817 C.3     1  UNL1        0.0996
     33 H         142.0821  142.5875  172.0035 H       1  UNL1        0.2103
@<TRIPOS>BOND
     1    26    27    1
     2    27    28    1
     3    27    29    1
     4    29    30    1
     5    30    31    1
     6    31    25    1
     7    25    19    1
     8    19    20   ar
     9    20    21   ar
    10    21    22   ar
    11    22    18    1
    12    18     1    1
    13     1     2    1
    14     2     3    1
    15     3     4   am
    16     4     5    2
    17     4     7    1
    18     7     8   ar
    19     8     9   ar
    20     9    10   ar
    21    10    12    1
    22    12    13   ar
    23    13    14   ar
    24    14    15   ar
    25    15    16   ar
    26    16    17   ar
    27    10    11   ar
    28     3     6    1
    29    22    23   ar
    30    23    24   ar
    31    31    32    1
    32    32    27    1
    33    24    19   ar
    34     6     1    1
    35    11     7   ar
    36    17    12   ar
    37    28    33    1
@<TRIPOS>MOLECULE
*****
 33 37 0 0 0
SMALL
GASTEIGER

@<TRIPOS>ATOM
      1 C         139.2704  139.1890  160.2392 C.3     1  UNL1        0.2052
      2 C         139.8173  140.1247  161.2763 C.3     1  UNL1        0.1391
      3 N         139.3144  139.2176  162.3599 N.am    1  UNL1       -0.2647
      4 C         139.3454  139.2377  163.8595 C.2     1  UNL1        0.3047
      5 O         138.7181  138.1193  164.6377 O.2     1  UNL1       -0.2647
      6 C         138.7675  138.2819  161.3228 C.3     1  UNL1        0.1391
      7 C         140.0038  140.3762  164.5808 C.ar    1  UNL1        0.3043
      8 N         140.4222  141.6815  163.9718 N.ar    1  UNL1       -0.1021
      9 N         141.0364  142.5214  165.0523 N.ar    1  UNL1       -0.1068
     10 C         140.9975  141.7350  166.3291 C.ar    1  UNL1        0.2501
     11 O         140.3593  140.4092  166.0377 O.2     1  UNL1       -0.4122
     12 C         141.5073  142.1939  167.6631 C.ar    1  UNL1        0.0551
     13 C         140.6023  142.9452  168.5939 C.ar    1  UNL1        0.0047
     14 C         141.1121  143.4041  169.9279 C.ar    1  UNL1        0.0002
     15 C         142.5269  143.1116  170.3311 C.ar    1  UNL1        0.0000
     16 C         143.4320  142.3603  169.4003 C.ar    1  UNL1        0.0002
     17 C         142.9222  141.9014  168.0663 C.ar    1  UNL1        0.0047
     18 O         139.2393  139.1688  158.7397 O.3     1  UNL1       -0.4756
     19 C         142.1834  136.6403  156.4619 C.ar    1  UNL1       -0.0059
     20 C         140.7598  136.7346  155.9988 C.ar    1  UNL1        0.0002
     21 C         139.7785  137.5775  156.7581 C.ar    1  UNL1        0.0366
     22 C         140.2207  138.3260  157.9804 C.ar    1  UNL1        0.1385
     23 C         141.6443  138.2316  158.4435 C.ar    1  UNL1        0.0366
     24 C         142.6256  137.3887  157.6843 C.ar    1  UNL1        0.0002
     25 C         143.1648  135.7974  155.7026 C.3     1  UNL1        0.0992
     26 C         142.5839  130.5081  156.0600 C.3     1  UNL1        0.0308
     27 C         142.7811  131.9785  156.2809 C.3     1  UNL1        0.1044
     28 O         142.8960  131.5864  157.7241 O.3     1  UNL1       -0.3853
     29 C         142.6250  132.0633  154.7914 C.3     1  UNL1        0.0456
     30 C         142.7497  133.5042  154.3936 C.3     1  UNL1        0.0749
     31 N         142.9829  134.3099  155.6371 N.3     1  UNL1       -0.2669
     32 C         143.0023  133.3670  156.8035 C.3     1  UNL1        0.0996
     33 H         142.7925  130.6255  157.8073 H       1  UNL1        0.2103
@<TRIPOS>BOND
     1    26    27    1
     2    27    28    1
     3    27    29    1
     4    29    30    1
     5    30    31    1
     6    31    25    1
     7    25    19    1
     8    19    20   ar
     9    20    21   ar
    10    21    22   ar
    11    22    18    1
    12    18     1    1
    13     1     2    1
    14     2     3    1
    15     3     4   am
    16     4     5    2
    17     4     7    1
    18     7     8   ar
    19     8     9   ar
    20     9    10   ar
    21    10    12    1
    22    12    13   ar
    23    13    14   ar
    24    14    15   ar
    25    15    16   ar
    26    16    17   ar
    27    10    11   ar
    28     3     6    1
    29    22    23   ar
    30    23    24   ar
    31    31    32    1
    32    32    27    1
    33    24    19   ar
    34     6     1    1
    35    11     7   ar
    36    17    12   ar
    37    28    33    1
@<TRIPOS>MOLECULE
*****
 33 37 0 0 0
SMALL
GASTEIGER

@<TRIPOS>ATOM
      1 C         140.7984  142.9151  160.5786 C.3     1  UNL1        0.2052
      2 C         140.9175  142.4787  162.0088 C.3     1  UNL1        0.1391
      3 N         139.4228  142.4059  162.1111 N.am    1  UNL1       -0.2647
      4 C         138.4500  142.0459  163.1947 C.2     1  UNL1        0.3047
      5 O         136.9754  142.0886  162.9233 O.2     1  UNL1       -0.2647
      6 C         139.3037  142.8423  160.6809 C.3     1  UNL1        0.1391
      7 C         138.9519  141.6432  164.5496 C.ar    1  UNL1        0.3043
      8 N         138.6814  140.3383  165.2380 N.ar    1  UNL1       -0.1021
      9 N         139.3747  140.3633  166.5679 N.ar    1  UNL1       -0.1068
     10 C         140.0737  141.6838  166.7014 C.ar    1  UNL1        0.2501
     11 O         139.8124  142.4748  165.4540 O.2     1  UNL1       -0.4122
     12 C         140.8906  142.1341  167.8761 C.ar    1  UNL1        0.0551
     13 C         142.2480  141.5429  168.1166 C.ar    1  UNL1        0.0047
     14 C         143.0649  141.9932  169.2913 C.ar    1  UNL1        0.0002
     15 C         142.5244  143.0349  170.2254 C.ar    1  UNL1        0.0000
     16 C         141.1670  143.6262  169.9850 C.ar    1  UNL1        0.0002
     17 C         140.3501  143.1759  168.8103 C.ar    1  UNL1        0.0047
     18 O         141.7711  143.2751  159.4950 O.3     1  UNL1       -0.4756
     19 C         140.3574  145.5088  155.8534 C.ar    1  UNL1       -0.0059
     20 C         141.3801  146.1251  156.7611 C.ar    1  UNL1        0.0002
     21 C         141.8514  145.3805  157.9749 C.ar    1  UNL1        0.0366
     22 C         141.2998  144.0196  158.2811 C.ar    1  UNL1        0.1385
     23 C         140.2770  143.4033  157.3734 C.ar    1  UNL1        0.0366
     24 C         139.8058  144.1479  156.1595 C.ar    1  UNL1        0.0002
     25 C         139.8861  146.2534  154.6394 C.3     1  UNL1        0.0992
     26 C         138.6589  151.3994  155.3133 C.3     1  UNL1        0.0308
     27 C         138.7817  149.9050  155.3542 C.3     1  UNL1        0.1044
     28 O         137.7247  150.0045  156.4137 O.3     1  UNL1       -0.3853
     29 C         139.8131  150.1179  154.2860 C.3     1  UNL1        0.0456
     30 C         140.3523  148.7759  153.8883 C.3     1  UNL1        0.0749
     31 N         139.6542  147.7336  154.7106 N.3     1  UNL1       -0.2669
     32 C         138.6835  148.4314  155.6165 C.3     1  UNL1        0.0996
     33 H         137.4893  150.9358  156.5491 H       1  UNL1        0.2103
@<TRIPOS>BOND
     1    26    27    1
     2    27    28    1
     3    27    29    1
     4    29    30    1
     5    30    31    1
     6    31    25    1
     7    25    19    1
     8    19    20   ar
     9    20    21   ar
    10    21    22   ar
    11    22    18    1
    12    18     1    1
    13     1     2    1
    14     2     3    1
    15     3     4   am
    16     4     5    2
    17     4     7    1
    18     7     8   ar
    19     8     9   ar
    20     9    10   ar
    21    10    12    1
    22    12    13   ar
    23    13    14   ar
    24    14    15   ar
    25    15    16   ar
    26    16    17   ar
    27    10    11   ar
    28     3     6    1
    29    22    23   ar
    30    23    24   ar
    31    31    32    1
    32    32    27    1
    33    24    19   ar
    34     6     1    1
    35    11     7   ar
    36    17    12   ar
    37    28    33    1
@<TRIPOS>MOLECULE
*****
 33 37 0 0 0
SMALL
GASTEIGER

@<TRIPOS>ATOM
      1 C         138.9453  140.2512  158.3860 C.3     1  UNL1        0.2052
      2 C         138.7783  140.6405  159.8250 C.3     1  UNL1        0.1391
      3 N         139.1516  142.0532  159.4860 N.am    1  UNL1       -0.2647
      4 C         139.2975  143.3276  160.2638 C.2     1  UNL1        0.3047
      5 O         139.7014  144.5913  159.5640 O.2     1  UNL1       -0.2647
      6 C         139.3187  141.6639  158.0471 C.3     1  UNL1        0.1391
      7 C         139.0395  143.3380  161.7415 C.ar    1  UNL1        0.3043
      8 N         138.1404  144.2902  162.4727 N.ar    1  UNL1       -0.1021
      9 N         138.1805  143.9389  163.9304 N.ar    1  UNL1       -0.1068
     10 C         139.1045  142.7695  164.1000 C.ar    1  UNL1        0.2501
     11 O         139.6354  142.3981  162.7471 O.2     1  UNL1       -0.4122
     12 C         139.4389  142.0906  165.3951 C.ar    1  UNL1        0.0551
     13 C         138.9930  140.6794  165.6393 C.ar    1  UNL1        0.0047
     14 C         139.3274  140.0005  166.9344 C.ar    1  UNL1        0.0002
     15 C         140.1077  140.7329  167.9854 C.ar    1  UNL1        0.0000
     16 C         140.5536  142.1441  167.7413 C.ar    1  UNL1        0.0002
     17 C         140.2192  142.8230  166.4462 C.ar    1  UNL1        0.0047
     18 O         138.7995  138.9769  157.6083 O.3     1  UNL1       -0.4756
     19 C         142.4486  136.5928  156.4903 C.ar    1  UNL1       -0.0059
     20 C         141.1979  136.4785  155.6703 C.ar    1  UNL1        0.0002
     21 C         139.9815  137.2732  156.0429 C.ar    1  UNL1        0.0366
     22 C         140.0159  138.1822  157.2356 C.ar    1  UNL1        0.1385
     23 C         141.2666  138.2965  158.0557 C.ar    1  UNL1        0.0366
     24 C         142.4830  137.5018  157.6830 C.ar    1  UNL1        0.0002
     25 C         143.6650  135.7981  156.1177 C.3     1  UNL1        0.0992
     26 C         143.7614  130.5051  156.7631 C.3     1  UNL1        0.0308
     27 C         143.8735  131.9968  156.8738 C.3     1  UNL1        0.1044
     28 O         144.4949  131.6937  158.2048 O.3     1  UNL1       -0.3853
     29 C         143.2285  131.9881  155.5195 C.3     1  UNL1        0.0456
     30 C         143.0720  133.4110  155.0715 C.3     1  UNL1        0.0749
     31 N         143.6201  134.2991  156.1488 N.3     1  UNL1       -0.2669
     32 C         144.1155  133.4251  157.2627 C.3     1  UNL1        0.0996
     33 H         144.5204  130.7333  158.3386 H       1  UNL1        0.2103
@<TRIPOS>BOND
     1    26    27    1
     2    27    28    1
     3    27    29    1
     4    29    30    1
     5    30    31    1
     6    31    25    1
     7    25    19    1
     8    19    20   ar
     9    20    21   ar
    10    21    22   ar
    11    22    18    1
    12    18     1    1
    13     1     2    1
    14     2     3    1
    15     3     4   am
    16     4     5    2
    17     4     7    1
    18     7     8   ar
    19     8     9   ar
    20     9    10   ar
    21    10    12    1
    22    12    13   ar
    23    13    14   ar
    24    14    15   ar
    25    15    16   ar
    26    16    17   ar
    27    10    11   ar
    28     3     6    1
    29    22    23   ar
    30    23    24   ar
    31    31    32    1
    32    32    27    1
    33    24    19   ar
    34     6     1    1
    35    11     7   ar
    36    17    12   ar
    37    28    33    1
@<TRIPOS>MOLECULE
*****
 33 37 0 0 0
SMALL
GASTEIGER

@<TRIPOS>ATOM
      1 C         140.0667  144.2652  158.5690 C.3     1  UNL1        0.2052
      2 C         139.4585  143.5085  159.7125 C.3     1  UNL1        0.1391
      3 N         140.1145  144.4464  160.6821 N.am    1  UNL1       -0.2647
      4 C         140.1483  144.5747  162.1762 C.2     1  UNL1        0.3047
      5 O         140.9394  145.6764  162.8167 O.2     1  UNL1       -0.2647
      6 C         140.7227  145.2031  159.5386 C.3     1  UNL1        0.1391
      7 C         139.3910  143.6011  163.0299 C.ar    1  UNL1        0.3043
      8 N         138.1449  143.8966  163.8107 N.ar    1  UNL1       -0.1021
      9 N         137.7307  142.6392  164.5159 N.ar    1  UNL1       -0.1068
     10 C         138.7208  141.5666  164.1709 C.ar    1  UNL1        0.2501
     11 O         139.7471  142.1610  163.2524 O.2     1  UNL1       -0.4122
     12 C         138.6902  140.1484  164.6586 C.ar    1  UNL1        0.0551
     13 C         138.0837  139.8268  165.9923 C.ar    1  UNL1        0.0047
     14 C         138.0531  138.4087  166.4801 C.ar    1  UNL1        0.0002
     15 C         138.6290  137.3120  165.6341 C.ar    1  UNL1        0.0000
     16 C         139.2355  137.6335  164.3004 C.ar    1  UNL1        0.0002
     17 C         139.2662  139.0517  163.8127 C.ar    1  UNL1        0.0047
     18 O         140.0329  144.1370  157.0749 O.3     1  UNL1       -0.4756
     19 C         136.4427  142.3288  155.0524 C.ar    1  UNL1       -0.0059
     20 C         137.3339  141.4737  155.9036 C.ar    1  UNL1        0.0002
     21 C         138.5306  142.0764  156.5777 C.ar    1  UNL1        0.0366
     22 C         138.8361  143.5343  156.4007 C.ar    1  UNL1        0.1385
     23 C         137.9449  144.3894  155.5496 C.ar    1  UNL1        0.0366
     24 C         136.7482  143.7867  154.8754 C.ar    1  UNL1        0.0002
     25 C         135.2459  141.7261  154.3782 C.3     1  UNL1        0.0992
     26 C         131.6837  139.3897  157.5867 C.3     1  UNL1        0.0308
     27 C         132.8988  139.8657  156.8471 C.3     1  UNL1        0.1044
     28 O         133.6288  138.9246  157.7588 O.3     1  UNL1       -0.3853
     29 C         131.9146  140.7073  156.0899 C.3     1  UNL1        0.0456
     30 C         132.6741  141.5066  155.0729 C.3     1  UNL1        0.0749
     31 N         134.1276  141.1590  155.2015 N.3     1  UNL1       -0.2669
     32 C         134.2664  140.1449  156.2980 C.3     1  UNL1        0.0996
     33 H         132.9946  138.4903  158.3503 H       1  UNL1        0.2103
@<TRIPOS>BOND
     1    26    27    1
     2    27    28    1
     3    27    29    1
     4    29    30    1
     5    30    31    1
     6    31    25    1
     7    25    19    1
     8    19    20   ar
     9    20    21   ar
    10    21    22   ar
    11    22    18    1
    12    18     1    1
    13     1     2    1
    14     2     3    1
    15     3     4   am
    16     4     5    2
    17     4     7    1
    18     7     8   ar
    19     8     9   ar
    20     9    10   ar
    21    10    12    1
    22    12    13   ar
    23    13    14   ar
    24    14    15   ar
    25    15    16   ar
    26    16    17   ar
    27    10    11   ar
    28     3     6    1
    29    22    23   ar
    30    23    24   ar
    31    31    32    1
    32    32    27    1
    33    24    19   ar
    34     6     1    1
    35    11     7   ar
    36    17    12   ar
    37    28    33    1
@<TRIPOS>MOLECULE
*****
 33 37 0 0 0
SMALL
GASTEIGER

@<TRIPOS>ATOM
      1 C         142.7532  140.3947  158.8660 C.3     1  UNL1        0.2052
      2 C         142.4089  139.9647  160.2612 C.3     1  UNL1        0.1391
      3 N         143.6258  140.6720  160.7795 N.am    1  UNL1       -0.2647
      4 C         144.2430  140.8682  162.1326 C.2     1  UNL1        0.3047
      5 O         145.5076  141.6627  162.2721 O.2     1  UNL1       -0.2647
      6 C         143.9701  141.1020  159.3843 C.3     1  UNL1        0.1391
      7 C         143.5955  140.2698  163.3461 C.ar    1  UNL1        0.3043
      8 N         144.3089  139.7240  164.5474 N.ar    1  UNL1       -0.1021
      9 N         143.2752  139.2290  165.5151 N.ar    1  UNL1       -0.1068
     10 C         141.9230  139.4690  164.9119 C.ar    1  UNL1        0.2501
     11 O         142.1209  140.1122  163.5713 O.2     1  UNL1       -0.4122
     12 C         140.6043  139.1259  165.5391 C.ar    1  UNL1        0.0551
     13 C         139.7651  138.0229  164.9653 C.ar    1  UNL1        0.0047
     14 C         138.4464  137.6799  165.5925 C.ar    1  UNL1        0.0002
     15 C         137.9669  138.4398  166.7935 C.ar    1  UNL1        0.0000
     16 C         138.8060  139.5428  167.3674 C.ar    1  UNL1        0.0002
     17 C         140.1247  139.8858  166.7402 C.ar    1  UNL1        0.0047
     18 O         142.1361  140.1985  157.5130 O.3     1  UNL1       -0.4756
     19 C         142.6794  136.2977  155.3363 C.ar    1  UNL1       -0.0059
     20 C         141.4012  136.5750  156.0707 C.ar    1  UNL1        0.0002
     21 C         141.2202  137.8753  156.7963 C.ar    1  UNL1        0.0366
     22 C         142.3172  138.8982  156.7874 C.ar    1  UNL1        0.1385
     23 C         143.5953  138.6209  156.0530 C.ar    1  UNL1        0.0366
     24 C         143.7764  137.3207  155.3274 C.ar    1  UNL1        0.0002
     25 C         142.8605  134.9974  154.6106 C.3     1  UNL1        0.0992
     26 C         144.7596  131.0729  157.6820 C.3     1  UNL1        0.0308
     27 C         144.2994  132.3636  157.0719 C.3     1  UNL1        0.1044
     28 O         144.7400  132.9557  158.3776 O.3     1  UNL1       -0.3853
     29 C         143.9550  131.5015  155.8935 C.3     1  UNL1        0.0456
     30 C         143.3741  132.3833  154.8282 C.3     1  UNL1        0.0749
     31 N         143.3594  133.7902  155.3480 N.3     1  UNL1       -0.2669
     32 C         143.9313  133.7780  156.7347 C.3     1  UNL1        0.0996
     33 H         145.0888  132.2542  158.9495 H       1  UNL1        0.2103
@<TRIPOS>BOND
     1    26    27    1
     2    27    28    1
     3    27    29    1
     4    29    30    1
     5    30    31    1
     6    31    25    1
     7    25    19    1
     8    19    20   ar
     9    20    21   ar
    10    21    22   ar
    11    22    18    1
    12    18     1    1
    13     1     2    1
    14     2     3    1
    15     3     4   am
    16     4     5    2
    17     4     7    1
    18     7     8   ar
    19     8     9   ar
    20     9    10   ar
    21    10    12    1
    22    12    13   ar
    23    13    14   ar
    24    14    15   ar
    25    15    16   ar
    26    16    17   ar
    27    10    11   ar
    28     3     6    1
    29    22    23   ar
    30    23    24   ar
    31    31    32    1
    32    32    27    1
    33    24    19   ar
    34     6     1    1
    35    11     7   ar
    36    17    12   ar
    37    28    33    1
