@<TRIPOS>MOLECULE
*****
 30 32 0 0 0
SMALL
GASTEIGER

@<TRIPOS>ATOM
      1 N         144.6473  141.1455  162.1733 N.3     1  UNL1       -0.2686
      2 C         144.6926  142.5328  161.6048 C.3     1  UNL1        0.0724
      3 C         143.0483  144.2635  162.6302 C.3     1  UNL1        0.0015
      4 C         144.4378  143.7154  162.4916 C.3     1  UNL1        0.0173
      5 C         143.9998  140.0375  161.3967 C.3     1  UNL1        0.0771
      6 C         142.5042  139.9431  161.3297 C.3     1  UNL1        0.0453
      7 C         141.7575  139.1323  162.3471 C.2     1  UNL1       -0.0005
      8 C         141.7917  137.6387  162.4817 C.2     1  UNL1        0.0942
      9 N         140.9009  137.2561  163.6264 N.2     1  UNL1       -0.2482
     10 C         140.3163  138.5131  164.1992 C.2     1  UNL1        0.0631
     11 C         139.3703  138.7516  165.3385 C.3     1  UNL1        0.0717
     12 C         138.9537  140.1497  165.6872 C.2     1  UNL1       -0.0198
     13 C         139.4832  141.3093  164.8966 C.2     1  UNL1       -0.0042
     14 C         140.4292  141.0708  163.7573 C.2     1  UNL1        0.0006
     15 C         140.8457  139.6727  163.4085 C.2     1  UNL1        0.0114
     16 C         145.2495  140.8661  163.5184 C.3     1  UNL1        0.0992
     17 C         144.3624  140.5558  164.6875 C.ar    1  UNL1       -0.0061
     18 C         143.6801  141.6681  165.4274 C.ar    1  UNL1       -0.0029
     19 C         142.7930  141.3577  166.5965 C.ar    1  UNL1       -0.0003
     20 C         142.5882  139.9351  167.0256 C.ar    1  UNL1        0.0001
     21 C         143.2704  138.8229  166.2858 C.ar    1  UNL1       -0.0003
     22 C         144.1575  139.1333  165.1167 C.ar    1  UNL1       -0.0029
     23 C         141.7011  139.6248  168.1947 C.2     1  UNL1        0.0047
     24 C         140.8863  140.7136  168.8278 C.2     1  UNL1        0.0598
     25 C         139.9992  140.4033  169.9968 C.2     1  UNL1        0.2679
     26 O         138.8452  141.3046  170.3227 O.2     1  UNL1       -0.2681
     27 N         140.2661  139.1918  170.8400 N.am    1  UNL1       -0.1934
     28 O         139.3789  138.8815  172.0091 O.3     1  UNL1       -0.2949
     29 H         141.0234  138.6002  170.6262 H       1  UNL1        0.1825
     30 H         138.6876  139.5584  172.0790 H       1  UNL1        0.2414
@<TRIPOS>BOND
     1     3     4    1
     2     4     2    1
     3     2     1    1
     4     1     5    1
     5     5     6    1
     6     6     7    1
     7     7     8    2
     8     8     9    1
     9     9    10    2
    10    10    11    1
    11    11    12    1
    12    12    13    2
    13    13    14    1
    14    14    15    2
    15     1    16    1
    16    16    17    1
    17    17    18   ar
    18    18    19   ar
    19    19    20   ar
    20    20    23    1
    21    23    24    2
    22    24    25    1
    23    25    26    2
    24    25    27   am
    25    27    28    1
    26    20    21   ar
    27    21    22   ar
    28    15     7    1
    29    22    17   ar
    30    15    10    1
    31    27    29    1
    32    28    30    1
@<TRIPOS>MOLECULE
*****
 30 32 0 0 0
SMALL
GASTEIGER

@<TRIPOS>ATOM
      1 N         141.2239  137.7051  162.3759 N.3     1  UNL1       -0.2686
      2 C         139.9881  138.0531  161.6002 C.3     1  UNL1        0.0724
      3 C         137.9895  139.4066  162.5613 C.3     1  UNL1        0.0015
      4 C         138.6561  138.0907  162.2888 C.3     1  UNL1        0.0173
      5 C         142.5755  137.8702  161.7469 C.3     1  UNL1        0.0771
      6 C         143.0940  139.2423  161.4326 C.3     1  UNL1        0.0453
      7 C         143.4593  140.1792  162.5457 C.2     1  UNL1       -0.0005
      8 C         144.8218  140.3388  163.1523 C.2     1  UNL1        0.0942
      9 N         144.7308  141.3791  164.2291 N.2     1  UNL1       -0.2482
     10 C         143.3120  141.8625  164.2879 C.2     1  UNL1        0.0631
     11 C         142.6341  142.8821  165.1544 C.3     1  UNL1        0.0717
     12 C         141.1704  143.1600  164.9805 C.2     1  UNL1       -0.0198
     13 C         140.3846  142.4184  163.9401 C.2     1  UNL1       -0.0042
     14 C         141.0625  141.3988  163.0736 C.2     1  UNL1        0.0006
     15 C         142.5262  141.1208  163.2475 C.2     1  UNL1        0.0114
     16 C         141.1079  137.1919  163.7806 C.3     1  UNL1        0.0992
     17 C         141.4044  138.0995  164.9375 C.ar    1  UNL1       -0.0061
     18 C         142.7902  138.1588  165.5084 C.ar    1  UNL1       -0.0029
     19 C         143.0866  139.0664  166.6653 C.ar    1  UNL1       -0.0003
     20 C         141.9971  139.9147  167.2513 C.ar    1  UNL1        0.0001
     21 C         140.6112  139.8554  166.6805 C.ar    1  UNL1       -0.0003
     22 C         140.3149  138.9478  165.5235 C.ar    1  UNL1       -0.0029
     23 C         142.2935  140.8223  168.4082 C.2     1  UNL1        0.0047
     24 C         141.5377  142.1083  168.5654 C.2     1  UNL1        0.0598
     25 C         141.8341  143.0159  169.7223 C.2     1  UNL1        0.2679
     26 O         140.7186  143.7535  170.4019 O.2     1  UNL1       -0.2681
     27 N         143.2459  143.1859  170.1996 N.am    1  UNL1       -0.1934
     28 O         143.5423  144.0935  171.3566 O.3     1  UNL1       -0.2949
     29 H         143.9780  142.7018  169.7536 H       1  UNL1        0.1825
     30 H         142.7165  144.4889  171.6771 H       1  UNL1        0.2414
@<TRIPOS>BOND
     1     3     4    1
     2     4     2    1
     3     2     1    1
     4     1     5    1
     5     5     6    1
     6     6     7    1
     7     7     8    2
     8     8     9    1
     9     9    10    2
    10    10    11    1
    11    11    12    1
    12    12    13    2
    13    13    14    1
    14    14    15    2
    15     1    16    1
    16    16    17    1
    17    17    18   ar
    18    18    19   ar
    19    19    20   ar
    20    20    23    1
    21    23    24    2
    22    24    25    1
    23    25    26    2
    24    25    27   am
    25    27    28    1
    26    20    21   ar
    27    21    22   ar
    28    15     7    1
    29    22    17   ar
    30    15    10    1
    31    27    29    1
    32    28    30    1
@<TRIPOS>MOLECULE
*****
 30 32 0 0 0
SMALL
GASTEIGER

@<TRIPOS>ATOM
      1 N         138.3118  141.2166  162.0035 N.3     1  UNL1       -0.2686
      2 C         137.7060  140.1853  161.0984 C.3     1  UNL1        0.0724
      3 C         138.8151  137.9964  161.9525 C.3     1  UNL1        0.0015
      4 C         137.5872  138.7620  161.5570 C.3     1  UNL1        0.0173
      5 C         139.5716  141.9229  161.5983 C.3     1  UNL1        0.0771
      6 C         140.8908  141.2144  161.6882 C.3     1  UNL1        0.0453
      7 C         141.7367  141.3576  162.9185 C.2     1  UNL1       -0.0005
      8 C         142.4460  142.6032  163.3607 C.2     1  UNL1        0.0942
      9 N         143.1695  142.2958  164.6382 N.2     1  UNL1       -0.2482
     10 C         142.9074  140.8603  164.9856 C.2     1  UNL1        0.0631
     11 C         143.3607  140.0062  166.1323 C.3     1  UNL1        0.0717
     12 C         142.9285  138.5723  166.2162 C.2     1  UNL1       -0.0198
     13 C         142.0429  137.9925  165.1533 C.2     1  UNL1       -0.0042
     14 C         141.5897  138.8466  164.0066 C.2     1  UNL1        0.0006
     15 C         142.0219  140.2805  163.9227 C.2     1  UNL1        0.0114
     16 C         137.6580  141.5417  163.3138 C.3     1  UNL1        0.0992
     17 C         138.3357  141.1765  164.6012 C.ar    1  UNL1       -0.0061
     18 C         139.2001  142.1802  165.3048 C.ar    1  UNL1       -0.0029
     19 C         139.8778  141.8149  166.5922 C.ar    1  UNL1       -0.0003
     20 C         139.6909  140.4459  167.1759 C.ar    1  UNL1        0.0001
     21 C         138.8264  139.4421  166.4723 C.ar    1  UNL1       -0.0003
     22 C         138.1488  139.8074  165.1849 C.ar    1  UNL1       -0.0029
     23 C         140.3686  140.0806  168.4633 C.2     1  UNL1        0.0047
     24 C         141.3880  141.0036  169.0624 C.2     1  UNL1        0.0598
     25 C         142.0657  140.6383  170.3498 C.2     1  UNL1        0.2679
     26 O         141.4528  141.0374  171.6596 O.2     1  UNL1       -0.2681
     27 N         143.3561  139.8740  170.3276 N.am    1  UNL1       -0.1934
     28 O         144.0338  139.5088  171.6150 O.3     1  UNL1       -0.2949
     29 H         143.7584  139.6121  169.4680 H       1  UNL1        0.1825
     30 H         143.5098  139.8396  172.3613 H       1  UNL1        0.2414
@<TRIPOS>BOND
     1     3     4    1
     2     4     2    1
     3     2     1    1
     4     1     5    1
     5     5     6    1
     6     6     7    1
     7     7     8    2
     8     8     9    1
     9     9    10    2
    10    10    11    1
    11    11    12    1
    12    12    13    2
    13    13    14    1
    14    14    15    2
    15     1    16    1
    16    16    17    1
    17    17    18   ar
    18    18    19   ar
    19    19    20   ar
    20    20    23    1
    21    23    24    2
    22    24    25    1
    23    25    26    2
    24    25    27   am
    25    27    28    1
    26    20    21   ar
    27    21    22   ar
    28    15     7    1
    29    22    17   ar
    30    15    10    1
    31    27    29    1
    32    28    30    1
@<TRIPOS>MOLECULE
*****
 30 32 0 0 0
SMALL
GASTEIGER

@<TRIPOS>ATOM
      1 N         138.0202  141.5105  162.1737 N.3     1  UNL1       -0.2686
      2 C         138.1981  142.8159  161.4566 C.3     1  UNL1        0.0724
      3 C         140.6843  143.4301  161.8945 C.3     1  UNL1        0.0015
      4 C         139.2301  143.7965  161.9291 C.3     1  UNL1        0.0173
      5 C         138.4025  140.2263  161.4995 C.3     1  UNL1        0.0771
      6 C         139.8414  139.8051  161.4489 C.3     1  UNL1        0.0453
      7 C         140.4126  138.9537  162.5438 C.2     1  UNL1       -0.0005
      8 C         139.9861  137.5575  162.8884 C.2     1  UNL1        0.0942
      9 N         140.8205  137.0899  164.0440 N.2     1  UNL1       -0.2482
     10 C         141.7625  138.1972  164.4135 C.2     1  UNL1        0.0631
     11 C         142.8173  138.3053  165.4745 C.3     1  UNL1        0.0717
     12 C         143.6200  139.5653  165.6083 C.2     1  UNL1       -0.0198
     13 C         143.3679  140.7172  164.6811 C.2     1  UNL1       -0.0042
     14 C         142.3131  140.6091  163.6202 C.2     1  UNL1        0.0006
     15 C         141.5104  139.3491  163.4864 C.2     1  UNL1        0.0114
     16 C         137.4600  141.4893  163.5650 C.3     1  UNL1        0.0992
     17 C         138.3462  141.1448  164.7252 C.ar    1  UNL1       -0.0061
     18 C         138.2110  139.8134  165.4028 C.ar    1  UNL1       -0.0029
     19 C         139.0973  139.4690  166.5629 C.ar    1  UNL1       -0.0003
     20 C         140.1186  140.4558  167.0454 C.ar    1  UNL1        0.0001
     21 C         140.2539  141.7872  166.3678 C.ar    1  UNL1       -0.0003
     22 C         139.3676  142.1317  165.2076 C.ar    1  UNL1       -0.0029
     23 C         141.0048  140.1113  168.2056 C.2     1  UNL1        0.0047
     24 C         141.0652  141.0185  169.3986 C.2     1  UNL1        0.0598
     25 C         141.9514  140.6740  170.5588 C.2     1  UNL1        0.2679
     26 O         141.6501  141.2232  171.9218 O.2     1  UNL1       -0.2681
     27 N         143.1389  139.7802  170.3560 N.am    1  UNL1       -0.1934
     28 O         144.0250  139.4357  171.5162 O.3     1  UNL1       -0.2949
     29 H         143.3367  139.4198  169.4615 H       1  UNL1        0.1825
     30 H         143.6920  139.8694  172.3174 H       1  UNL1        0.2414
@<TRIPOS>BOND
     1     3     4    1
     2     4     2    1
     3     2     1    1
     4     1     5    1
     5     5     6    1
     6     6     7    1
     7     7     8    2
     8     8     9    1
     9     9    10    2
    10    10    11    1
    11    11    12    1
    12    12    13    2
    13    13    14    1
    14    14    15    2
    15     1    16    1
    16    16    17    1
    17    17    18   ar
    18    18    19   ar
    19    19    20   ar
    20    20    23    1
    21    23    24    2
    22    24    25    1
    23    25    26    2
    24    25    27   am
    25    27    28    1
    26    20    21   ar
    27    21    22   ar
    28    15     7    1
    29    22    17   ar
    30    15    10    1
    31    27    29    1
    32    28    30    1
@<TRIPOS>MOLECULE
*****
 30 32 0 0 0
SMALL
GASTEIGER

@<TRIPOS>ATOM
      1 N         142.0081  138.0220  162.4857 N.3     1  UNL1       -0.2686
      2 C         143.4659  138.3095  162.2804 C.3     1  UNL1        0.0724
      3 C         144.9148  140.0643  163.5341 C.3     1  UNL1        0.0015
      4 C         143.9798  139.7122  162.4151 C.3     1  UNL1        0.0173
      5 C         141.0234  138.3237  161.3952 C.3     1  UNL1        0.0771
      6 C         140.6228  139.7424  161.1177 C.3     1  UNL1        0.0453
      7 C         139.6335  140.4307  162.0108 C.2     1  UNL1       -0.0005
      8 C         138.1423  140.2771  161.9582 C.2     1  UNL1        0.0942
      9 N         137.5490  141.1449  163.0282 N.2     1  UNL1       -0.2482
     10 C         138.6735  141.8349  163.7420 C.2     1  UNL1        0.0631
     11 C         138.6907  142.8081  164.8832 C.3     1  UNL1        0.0717
     12 C         139.9963  143.3399  165.3957 C.2     1  UNL1       -0.0198
     13 C         141.2846  142.8985  164.7669 C.2     1  UNL1       -0.0042
     14 C         141.2673  141.9253  163.6257 C.2     1  UNL1        0.0006
     15 C         139.9618  141.3935  163.1132 C.2     1  UNL1        0.0114
     16 C         141.5350  137.4328  163.7815 C.3     1  UNL1        0.0992
     17 C         141.1491  138.3326  164.9179 C.ar    1  UNL1       -0.0061
     18 C         142.2102  139.0352  165.7119 C.ar    1  UNL1       -0.0029
     19 C         141.8242  139.9350  166.8483 C.ar    1  UNL1       -0.0003
     20 C         140.3772  140.1320  167.1908 C.ar    1  UNL1        0.0001
     21 C         139.3161  139.4294  166.3968 C.ar    1  UNL1       -0.0003
     22 C         139.7021  138.5296  165.2604 C.ar    1  UNL1       -0.0029
     23 C         139.9913  141.0318  168.3272 C.2     1  UNL1        0.0047
     24 C         140.8572  141.1096  169.5496 C.2     1  UNL1        0.0598
     25 C         140.4713  142.0094  170.6860 C.2     1  UNL1        0.2679
     26 O         141.4267  142.2376  171.8197 O.2     1  UNL1       -0.2681
     27 N         139.1300  142.6809  170.6888 N.am    1  UNL1       -0.1934
     28 O         138.7442  143.5807  171.8253 O.3     1  UNL1       -0.2949
     29 H         138.5030  142.5312  169.9448 H       1  UNL1        0.1825
     30 H         139.4695  143.6186  172.4683 H       1  UNL1        0.2414
@<TRIPOS>BOND
     1     3     4    1
     2     4     2    1
     3     2     1    1
     4     1     5    1
     5     5     6    1
     6     6     7    1
     7     7     8    2
     8     8     9    1
     9     9    10    2
    10    10    11    1
    11    11    12    1
    12    12    13    2
    13    13    14    1
    14    14    15    2
    15     1    16    1
    16    16    17    1
    17    17    18   ar
    18    18    19   ar
    19    19    20   ar
    20    20    23    1
    21    23    24    2
    22    24    25    1
    23    25    26    2
    24    25    27   am
    25    27    28    1
    26    20    21   ar
    27    21    22   ar
    28    15     7    1
    29    22    17   ar
    30    15    10    1
    31    27    29    1
    32    28    30    1
@<TRIPOS>MOLECULE
*****
 30 32 0 0 0
SMALL
GASTEIGER

@<TRIPOS>ATOM
      1 N         138.0389  140.5210  162.0961 N.3     1  UNL1       -0.2686
      2 C         137.8811  139.0892  161.6780 C.3     1  UNL1        0.0724
      3 C         139.9417  138.0539  162.8748 C.3     1  UNL1        0.0015
      4 C         138.4892  137.9952  162.5047 C.3     1  UNL1        0.0173
      5 C         138.7989  141.4771  161.2253 C.3     1  UNL1        0.0771
      6 C         140.2933  141.3835  161.1348 C.3     1  UNL1        0.0453
      7 C         141.1523  142.3738  161.8637 C.2     1  UNL1       -0.0005
      8 C         141.3469  143.8140  161.4922 C.2     1  UNL1        0.0942
      9 N         142.2824  144.4280  162.4911 N.2     1  UNL1       -0.2482
     10 C         142.6660  143.3674  163.4799 C.2     1  UNL1        0.0631
     11 C         143.5611  143.3936  164.6833 C.3     1  UNL1        0.0717
     12 C         143.7577  142.1502  165.4989 C.2     1  UNL1       -0.0198
     13 C         143.0593  140.8806  165.1112 C.2     1  UNL1       -0.0042
     14 C         142.1643  140.8544  163.9078 C.2     1  UNL1        0.0006
     15 C         141.9676  142.0978  163.0922 C.2     1  UNL1        0.0114
     16 C         137.4369  140.9968  163.3850 C.3     1  UNL1        0.0992
     17 C         138.3254  141.3929  164.5267 C.ar    1  UNL1       -0.0061
     18 C         138.8102  142.8076  164.6440 C.ar    1  UNL1       -0.0029
     19 C         139.6988  143.2036  165.7857 C.ar    1  UNL1       -0.0003
     20 C         140.1025  142.1851  166.8102 C.ar    1  UNL1        0.0001
     21 C         139.6177  140.7704  166.6929 C.ar    1  UNL1       -0.0003
     22 C         138.7292  140.3744  165.5511 C.ar    1  UNL1       -0.0029
     23 C         140.9911  142.5812  167.9519 C.2     1  UNL1        0.0047
     24 C         140.5784  142.2813  169.3625 C.2     1  UNL1        0.0598
     25 C         141.4670  142.6774  170.5042 C.2     1  UNL1        0.2679
     26 O         141.2291  142.1091  171.8719 O.2     1  UNL1       -0.2681
     27 N         142.5934  143.6418  170.2783 N.am    1  UNL1       -0.1934
     28 O         143.4819  144.0379  171.4201 O.3     1  UNL1       -0.2949
     29 H         142.7496  144.0148  169.3807 H       1  UNL1        0.1825
     30 H         143.1932  143.5838  172.2271 H       1  UNL1        0.2414
@<TRIPOS>BOND
     1     3     4    1
     2     4     2    1
     3     2     1    1
     4     1     5    1
     5     5     6    1
     6     6     7    1
     7     7     8    2
     8     8     9    1
     9     9    10    2
    10    10    11    1
    11    11    12    1
    12    12    13    2
    13    13    14    1
    14    14    15    2
    15     1    16    1
    16    16    17    1
    17    17    18   ar
    18    18    19   ar
    19    19    20   ar
    20    20    23    1
    21    23    24    2
    22    24    25    1
    23    25    26    2
    24    25    27   am
    25    27    28    1
    26    20    21   ar
    27    21    22   ar
    28    15     7    1
    29    22    17   ar
    30    15    10    1
    31    27    29    1
    32    28    30    1
@<TRIPOS>MOLECULE
*****
 30 32 0 0 0
SMALL
GASTEIGER

@<TRIPOS>ATOM
      1 N         142.1424  143.7419  161.7321 N.3     1  UNL1       -0.2686
      2 C         143.4235  143.1872  161.1834 C.3     1  UNL1        0.0724
      3 C         144.7341  141.3774  162.5091 C.3     1  UNL1        0.0015
      4 C         143.7773  141.7480  161.4148 C.3     1  UNL1        0.0173
      5 C         140.8584  143.5467  160.9816 C.3     1  UNL1        0.0771
      6 C         140.1991  142.1994  160.9610 C.3     1  UNL1        0.0453
      7 C         139.2328  141.8206  162.0439 C.2     1  UNL1       -0.0005
      8 C         137.8267  142.3231  162.1863 C.2     1  UNL1        0.0942
      9 N         137.2280  141.6858  163.4050 N.2     1  UNL1       -0.2482
     10 C         138.2640  140.7893  164.0158 C.2     1  UNL1        0.0631
     11 C         138.2392  139.9080  165.2293 C.3     1  UNL1        0.0717
     12 C         139.4534  139.1099  165.6015 C.2     1  UNL1       -0.0198
     13 C         140.6925  139.1932  164.7603 C.2     1  UNL1       -0.0042
     14 C         140.7174  140.0746  163.5468 C.2     1  UNL1        0.0006
     15 C         139.5031  140.8726  163.1746 C.2     1  UNL1        0.0114
     16 C         142.1453  144.4919  163.0311 C.3     1  UNL1        0.0992
     17 C         141.6661  143.8223  164.2849 C.ar    1  UNL1       -0.0061
     18 C         142.5899  142.9282  165.0577 C.ar    1  UNL1       -0.0029
     19 C         142.1106  142.2586  166.3115 C.ar    1  UNL1       -0.0003
     20 C         140.7076  142.4830  166.7923 C.ar    1  UNL1        0.0001
     21 C         139.7838  143.3770  166.0194 C.ar    1  UNL1       -0.0003
     22 C         140.2631  144.0467  164.7657 C.ar    1  UNL1       -0.0029
     23 C         140.2284  141.8133  168.0461 C.2     1  UNL1        0.0047
     24 C         141.0781  141.8390  169.2819 C.2     1  UNL1        0.0598
     25 C         140.5989  141.1693  170.5356 C.2     1  UNL1        0.2679
     26 O         140.6050  141.9183  171.8354 O.2     1  UNL1       -0.2681
     27 N         140.1136  139.7507  170.4898 N.am    1  UNL1       -0.1934
     28 O         139.6344  139.0811  171.7436 O.3     1  UNL1       -0.2949
     29 H         140.1096  139.2592  169.6368 H       1  UNL1        0.1825
     30 H         139.7041  139.6998  172.4874 H       1  UNL1        0.2414
@<TRIPOS>BOND
     1     3     4    1
     2     4     2    1
     3     2     1    1
     4     1     5    1
     5     5     6    1
     6     6     7    1
     7     7     8    2
     8     8     9    1
     9     9    10    2
    10    10    11    1
    11    11    12    1
    12    12    13    2
    13    13    14    1
    14    14    15    2
    15     1    16    1
    16    16    17    1
    17    17    18   ar
    18    18    19   ar
    19    19    20   ar
    20    20    23    1
    21    23    24    2
    22    24    25    1
    23    25    26    2
    24    25    27   am
    25    27    28    1
    26    20    21   ar
    27    21    22   ar
    28    15     7    1
    29    22    17   ar
    30    15    10    1
    31    27    29    1
    32    28    30    1
@<TRIPOS>MOLECULE
*****
 30 32 0 0 0
SMALL
GASTEIGER

@<TRIPOS>ATOM
      1 N         141.0989  143.9342  162.0223 N.3     1  UNL1       -0.2686
      2 C         140.0744  144.9200  161.5441 C.3     1  UNL1        0.0724
      3 C         137.9217  144.3237  162.8712 C.3     1  UNL1        0.0015
      4 C         138.9499  145.3307  162.4479 C.3     1  UNL1        0.0173
      5 C         141.2299  142.6015  161.3465 C.3     1  UNL1        0.0771
      6 C         140.1198  141.5975  161.4466 C.3     1  UNL1        0.0453
      7 C         139.9005  140.8470  162.7266 C.2     1  UNL1       -0.0005
      8 C         138.5935  140.6950  163.4468 C.2     1  UNL1        0.0942
      9 N         138.8349  139.8708  164.6765 N.2     1  UNL1       -0.2482
     10 C         140.2912  139.5133  164.7164 C.2     1  UNL1        0.0631
     11 C         141.1026  138.7163  165.6944 C.3     1  UNL1        0.0717
     12 C         142.5725  138.5227  165.4672 C.2     1  UNL1       -0.0198
     13 C         143.2311  139.1260  164.2621 C.2     1  UNL1       -0.0042
     14 C         142.4197  139.9230  163.2842 C.2     1  UNL1        0.0006
     15 C         140.9497  140.1166  163.5113 C.2     1  UNL1        0.0114
     16 C         141.9924  144.2812  163.1761 C.3     1  UNL1        0.0992
     17 C         141.8511  143.5526  164.4796 C.ar    1  UNL1       -0.0061
     18 C         143.0535  142.9298  165.1249 C.ar    1  UNL1       -0.0029
     19 C         142.9121  142.2012  166.4284 C.ar    1  UNL1       -0.0003
     20 C         141.5684  142.0955  167.0866 C.ar    1  UNL1        0.0001
     21 C         140.3660  142.7183  166.4414 C.ar    1  UNL1       -0.0003
     22 C         140.5074  143.4469  165.1378 C.ar    1  UNL1       -0.0029
     23 C         141.4271  141.3669  168.3902 C.2     1  UNL1        0.0047
     24 C         140.3110  141.7182  169.3286 C.2     1  UNL1        0.0598
     25 C         140.1697  140.9896  170.6322 C.2     1  UNL1        0.2679
     26 O         140.6351  141.6326  171.9051 O.2     1  UNL1       -0.2681
     27 N         139.5630  139.6182  170.6629 N.am    1  UNL1       -0.1934
     28 O         139.4217  138.8896  171.9665 O.3     1  UNL1       -0.2949
     29 H         139.2575  139.1962  169.8275 H       1  UNL1        0.1825
     30 H         139.7687  139.4417  172.6847 H       1  UNL1        0.2414
@<TRIPOS>BOND
     1     3     4    1
     2     4     2    1
     3     2     1    1
     4     1     5    1
     5     5     6    1
     6     6     7    1
     7     7     8    2
     8     8     9    1
     9     9    10    2
    10    10    11    1
    11    11    12    1
    12    12    13    2
    13    13    14    1
    14    14    15    2
    15     1    16    1
    16    16    17    1
    17    17    18   ar
    18    18    19   ar
    19    19    20   ar
    20    20    23    1
    21    23    24    2
    22    24    25    1
    23    25    26    2
    24    25    27   am
    25    27    28    1
    26    20    21   ar
    27    21    22   ar
    28    15     7    1
    29    22    17   ar
    30    15    10    1
    31    27    29    1
    32    28    30    1
@<TRIPOS>MOLECULE
*****
 30 32 0 0 0
SMALL
GASTEIGER

@<TRIPOS>ATOM
      1 N         138.7668  138.4433  161.6985 N.3     1  UNL1       -0.2686
      2 C         137.5637  139.3237  161.5337 C.3     1  UNL1        0.0724
      3 C         137.3144  141.4181  163.0509 C.3     1  UNL1        0.0015
      4 C         137.6857  140.8054  161.7329 C.3     1  UNL1        0.0173
      5 C         139.7713  138.3308  160.5902 C.3     1  UNL1        0.0771
      6 C         140.7129  139.4652  160.3134 C.3     1  UNL1        0.0453
      7 C         141.9228  139.6635  161.1776 C.2     1  UNL1       -0.0005
      8 C         143.2061  138.8919  161.0884 C.2     1  UNL1        0.0942
      9 N         144.1382  139.4198  162.1384 N.2     1  UNL1       -0.2482
     10 C         143.4310  140.5176  162.8765 C.2     1  UNL1        0.0631
     11 C         143.8570  141.3996  164.0126 C.3     1  UNL1        0.0717
     12 C         142.9137  142.4321  164.5548 C.2     1  UNL1       -0.0198
     13 C         141.5445  142.5828  163.9610 C.2     1  UNL1       -0.0042
     14 C         141.1186  141.7008  162.8249 C.2     1  UNL1        0.0006
     15 C         142.0618  140.6683  162.2827 C.2     1  UNL1        0.0114
     16 C         138.9656  137.6753  162.9716 C.3     1  UNL1        0.0992
     17 C         139.8975  138.1974  164.0247 C.ar    1  UNL1       -0.0061
     18 C         141.2765  137.6224  164.1578 C.ar    1  UNL1       -0.0029
     19 C         142.2083  138.1445  165.2109 C.ar    1  UNL1       -0.0003
     20 C         141.7611  139.2415  166.1310 C.ar    1  UNL1        0.0001
     21 C         140.3821  139.8165  165.9980 C.ar    1  UNL1       -0.0003
     22 C         139.4503  139.2944  164.9448 C.ar    1  UNL1       -0.0029
     23 C         142.6930  139.7636  167.1841 C.2     1  UNL1        0.0047
     24 C         142.1487  140.5232  168.3575 C.2     1  UNL1        0.0598
     25 C         143.0806  141.0452  169.4106 C.2     1  UNL1        0.2679
     26 O         143.4472  140.1829  170.5820 O.2     1  UNL1       -0.2681
     27 N         143.6460  142.4295  169.2923 N.am    1  UNL1       -0.1934
     28 O         144.5779  142.9515  170.3455 O.3     1  UNL1       -0.2949
     29 H         143.4054  142.9955  168.5236 H       1  UNL1        0.1825
     30 H         144.7087  142.2732  171.0265 H       1  UNL1        0.2414
@<TRIPOS>BOND
     1     3     4    1
     2     4     2    1
     3     2     1    1
     4     1     5    1
     5     5     6    1
     6     6     7    1
     7     7     8    2
     8     8     9    1
     9     9    10    2
    10    10    11    1
    11    11    12    1
    12    12    13    2
    13    13    14    1
    14    14    15    2
    15     1    16    1
    16    16    17    1
    17    17    18   ar
    18    18    19   ar
    19    19    20   ar
    20    20    23    1
    21    23    24    2
    22    24    25    1
    23    25    26    2
    24    25    27   am
    25    27    28    1
    26    20    21   ar
    27    21    22   ar
    28    15     7    1
    29    22    17   ar
    30    15    10    1
    31    27    29    1
    32    28    30    1
