@<TRIPOS>MOLECULE
*****
 35 40 0 0 0
SMALL
GASTEIGER

@<TRIPOS>ATOM
      1 C         138.6617  138.0441  161.0588 C.3     1  UNL1        0.0202
      2 C         140.0656  138.4355  160.7041 C.3     1  UNL1        0.0352
      3 C         141.1724  138.2405  161.6976 C.3     1  UNL1        0.1327
      4 O         141.5882  136.8551  162.0948 O.3     1  UNL1       -0.3801
      5 H         141.0449  136.2061  161.6208 H       1  UNL1        0.2108
      6 O         144.1583  145.2984  164.8392 O.2     1  UNL1       -0.2745
      7 C         143.3414  144.2002  164.2255 C.2     1  UNL1        0.2297
      8 C         141.9267  144.4645  163.8023 C.3     1  UNL1        0.0903
      9 C         141.1099  143.3664  163.1887 C.3     1  UNL1        0.0372
     10 C         141.7075  142.0038  162.9982 C.ar    1  UNL1       -0.0085
     11 C         141.1344  140.7356  162.4207 C.ar    1  UNL1       -0.0050
     12 C         141.8634  139.4309  162.2938 C.ar    1  UNL1        0.0037
     13 C         143.2835  139.3164  162.7632 C.ar    1  UNL1       -0.0050
     14 C         143.9745  140.5068  163.3595 C.ar    1  UNL1       -0.0073
     15 C         143.1220  141.7394  163.4213 C.ar    1  UNL1        0.0459
     16 N         143.9390  142.8376  164.0350 N.am    1  UNL1       -0.2589
     17 C         145.2963  142.2837  164.3525 C.3     1  UNL1        0.1029
     18 C         145.3182  140.8431  163.9349 C.3     1  UNL1        0.0495
     19 C         137.8430  138.9218  161.9585 C.3     1  UNL1        0.0722
     20 N         138.3062  139.2014  163.3575 N.3     1  UNL1       -0.2727
     21 C         138.1803  140.5834  163.9271 C.3     1  UNL1        0.0725
     22 C         138.6434  140.8631  165.3261 C.3     1  UNL1        0.0234
     23 C         139.2325  139.7608  166.1556 C.3     1  UNL1        0.0464
     24 C         139.3584  138.3788  165.5860 C.3     1  UNL1        0.0234
     25 C         138.8953  138.0991  164.1870 C.3     1  UNL1        0.0725
     26 C         139.6957  140.0405  167.5546 C.ar    1  UNL1        0.1003
     27 N         138.9893  139.6363  168.8146 N.ar    1  UNL1       -0.0814
     28 O         139.8035  140.1194  169.9779 O.2     1  UNL1       -0.3536
     29 C         141.0132  140.8222  169.4369 C.ar    1  UNL1        0.1787
     30 C         142.1669  141.5002  170.1147 C.ar    1  UNL1        0.0698
     31 C         143.2539  142.1295  169.2947 C.ar    1  UNL1        0.1433
     32 F         144.4076  142.8076  169.9723 F       1  UNL1       -0.2041
     33 C         143.1873  142.0807  167.7969 C.ar    1  UNL1        0.0299
     34 C         142.0336  141.4026  167.1192 C.ar    1  UNL1        0.0067
     35 C         140.9466  140.7734  167.9392 C.ar    1  UNL1        0.0540
@<TRIPOS>BOND
     1     6     7    2
     2     7     8    1
     3     8     9    1
     4     9    10    1
     5    10    11   ar
     6    11    12   ar
     7    12     3    1
     8     3     4    1
     9     3     2    1
    10     2     1    1
    11     1    19    1
    12    19    20    1
    13    20    21    1
    14    21    22    1
    15    22    23    1
    16    23    26    1
    17    26    27   ar
    18    27    28   ar
    19    28    29   ar
    20    29    30   ar
    21    30    31   ar
    22    31    32    1
    23    31    33   ar
    24    33    34   ar
    25    34    35   ar
    26    23    24    1
    27    24    25    1
    28    12    13   ar
    29    13    14   ar
    30    14    15   ar
    31    15    16    1
    32    16    17    1
    33    17    18    1
    34    16     7   am
    35    15    10   ar
    36    25    20    1
    37    18    14    1
    38    35    26   ar
    39    35    29   ar
    40     4     5    1
@<TRIPOS>MOLECULE
*****
 35 40 0 0 0
SMALL
GASTEIGER

@<TRIPOS>ATOM
      1 C         143.0181  138.8138  167.0668 C.3     1  UNL1        0.0202
      2 C         142.5160  140.1584  167.5026 C.3     1  UNL1        0.0352
      3 C         141.0563  140.4857  167.3928 C.3     1  UNL1        0.1327
      4 O         140.0838  139.9177  168.3837 O.3     1  UNL1       -0.3801
      5 H         140.5596  139.3649  169.0232 H       1  UNL1        0.2108
      6 O         139.1981  145.9202  161.4252 O.2     1  UNL1       -0.2745
      7 C         139.8142  145.1146  162.5304 C.2     1  UNL1        0.2297
      8 C         141.1611  145.4918  163.0725 C.3     1  UNL1        0.0903
      9 C         141.7771  144.6863  164.1777 C.3     1  UNL1        0.0372
     10 C         141.0464  143.5036  164.7410 C.ar    1  UNL1       -0.0085
     11 C         141.4142  142.5313  165.8316 C.ar    1  UNL1       -0.0050
     12 C         140.5690  141.3809  166.2923 C.ar    1  UNL1        0.0037
     13 C         139.2365  141.1258  165.6526 C.ar    1  UNL1       -0.0050
     14 C         138.7491  142.0210  164.5521 C.ar    1  UNL1       -0.0073
     15 C         139.6996  143.1264  164.1990 C.ar    1  UNL1        0.0459
     16 N         139.0835  143.9319  163.0937 N.am    1  UNL1       -0.2589
     17 C         137.7523  143.3244  162.7638 C.3     1  UNL1        0.1029
     18 C         137.5457  142.1434  163.6652 C.3     1  UNL1        0.0495
     19 C         143.6800  138.6575  165.7299 C.3     1  UNL1        0.0722
     20 N         143.3468  139.6019  164.6132 N.3     1  UNL1       -0.2727
     21 C         142.0922  139.4062  163.8146 C.3     1  UNL1        0.0725
     22 C         141.7590  140.3506  162.6978 C.3     1  UNL1        0.0234
     23 C         142.6804  141.4907  162.3796 C.3     1  UNL1        0.0464
     24 C         143.9351  141.6863  163.1782 C.3     1  UNL1        0.0234
     25 C         144.2682  140.7420  164.2949 C.3     1  UNL1        0.0725
     26 C         142.3472  142.4350  161.2629 C.ar    1  UNL1        0.1003
     27 N         143.2037  143.5685  160.7816 N.ar    1  UNL1       -0.0814
     28 O         142.4849  144.2457  159.6526 O.2     1  UNL1       -0.3536
     29 C         141.1841  143.5308  159.4362 C.ar    1  UNL1        0.1787
     30 C         140.0661  143.7543  158.4614 C.ar    1  UNL1        0.0698
     31 C         138.8630  142.8586  158.4818 C.ar    1  UNL1        0.1433
     32 F         137.7450  143.0820  157.5071 F       1  UNL1       -0.2041
     33 C         138.7779  141.7396  159.4770 C.ar    1  UNL1        0.0299
     34 C         139.8959  141.5161  160.4518 C.ar    1  UNL1        0.0067
     35 C         141.0990  142.4117  160.4314 C.ar    1  UNL1        0.0540
@<TRIPOS>BOND
     1     6     7    2
     2     7     8    1
     3     8     9    1
     4     9    10    1
     5    10    11   ar
     6    11    12   ar
     7    12     3    1
     8     3     4    1
     9     3     2    1
    10     2     1    1
    11     1    19    1
    12    19    20    1
    13    20    21    1
    14    21    22    1
    15    22    23    1
    16    23    26    1
    17    26    27   ar
    18    27    28   ar
    19    28    29   ar
    20    29    30   ar
    21    30    31   ar
    22    31    32    1
    23    31    33   ar
    24    33    34   ar
    25    34    35   ar
    26    23    24    1
    27    24    25    1
    28    12    13   ar
    29    13    14   ar
    30    14    15   ar
    31    15    16    1
    32    16    17    1
    33    17    18    1
    34    16     7   am
    35    15    10   ar
    36    25    20    1
    37    18    14    1
    38    35    26   ar
    39    35    29   ar
    40     4     5    1
@<TRIPOS>MOLECULE
*****
 35 40 0 0 0
SMALL
GASTEIGER

@<TRIPOS>ATOM
      1 C         140.2811  145.1815  158.4683 C.3     1  UNL1        0.0202
      2 C         141.0013  145.4522  159.7559 C.3     1  UNL1        0.0352
      3 C         140.2259  145.6098  161.0303 C.3     1  UNL1        0.1327
      4 O         139.1668  146.6666  161.1379 O.3     1  UNL1       -0.3801
      5 H         139.1116  147.1553  160.3018 H       1  UNL1        0.2108
      6 O         142.4627  140.2215  166.9093 O.2     1  UNL1       -0.2745
      7 C         142.2905  141.0417  165.6652 C.2     1  UNL1        0.2297
      8 C         143.1365  140.7609  164.4586 C.3     1  UNL1        0.0903
      9 C         142.9644  141.5810  163.2147 C.3     1  UNL1        0.0372
     10 C         141.9463  142.6820  163.1770 C.ar    1  UNL1       -0.0085
     11 C         141.5627  143.6483  162.0865 C.ar    1  UNL1       -0.0050
     12 C         140.5096  144.7107  162.1970 C.ar    1  UNL1        0.0037
     13 C         139.7401  144.8741  163.4742 C.ar    1  UNL1       -0.0050
     14 C         140.0238  143.9750  164.6409 C.ar    1  UNL1       -0.0073
     15 C         141.1004  142.9628  164.3835 C.ar    1  UNL1        0.0459
     16 N         141.2725  142.1427  165.6276 N.am    1  UNL1       -0.2589
     17 C         140.3022  142.6480  166.6538 C.3     1  UNL1        0.1029
     18 C         139.5305  143.7804  166.0440 C.3     1  UNL1        0.0495
     19 C         140.1487  143.7749  157.9644 C.3     1  UNL1        0.0722
     20 N         140.1258  142.6301  158.9333 N.3     1  UNL1       -0.2727
     21 C         138.9104  142.3869  159.7783 C.3     1  UNL1        0.0725
     22 C         138.8875  141.2422  160.7473 C.3     1  UNL1        0.0234
     23 C         140.0798  140.3406  160.8714 C.3     1  UNL1        0.0464
     24 C         141.2952  140.5838  160.0264 C.3     1  UNL1        0.0234
     25 C         141.3181  141.7285  159.0574 C.3     1  UNL1        0.0725
     26 C         140.0569  139.1958  161.8404 C.ar    1  UNL1        0.1003
     27 N         140.6644  137.8421  161.6204 N.ar    1  UNL1       -0.0814
     28 O         140.4054  137.0134  162.8435 O.2     1  UNL1       -0.3536
     29 C         139.6377  137.8549  163.8195 C.ar    1  UNL1        0.1787
     30 C         139.1070  137.5673  165.1926 C.ar    1  UNL1        0.0698
     31 C         138.3609  138.6284  165.9458 C.ar    1  UNL1        0.1433
     32 F         137.8301  138.3408  167.3190 F       1  UNL1       -0.2041
     33 C         138.1455  139.9771  165.3259 C.ar    1  UNL1        0.0299
     34 C         138.6762  140.2648  163.9527 C.ar    1  UNL1        0.0067
     35 C         139.4223  139.2037  163.1995 C.ar    1  UNL1        0.0540
@<TRIPOS>BOND
     1     6     7    2
     2     7     8    1
     3     8     9    1
     4     9    10    1
     5    10    11   ar
     6    11    12   ar
     7    12     3    1
     8     3     4    1
     9     3     2    1
    10     2     1    1
    11     1    19    1
    12    19    20    1
    13    20    21    1
    14    21    22    1
    15    22    23    1
    16    23    26    1
    17    26    27   ar
    18    27    28   ar
    19    28    29   ar
    20    29    30   ar
    21    30    31   ar
    22    31    32    1
    23    31    33   ar
    24    33    34   ar
    25    34    35   ar
    26    23    24    1
    27    24    25    1
    28    12    13   ar
    29    13    14   ar
    30    14    15   ar
    31    15    16    1
    32    16    17    1
    33    17    18    1
    34    16     7   am
    35    15    10   ar
    36    25    20    1
    37    18    14    1
    38    35    26   ar
    39    35    29   ar
    40     4     5    1
@<TRIPOS>MOLECULE
*****
 35 40 0 0 0
SMALL
GASTEIGER

@<TRIPOS>ATOM
      1 C         138.6815  139.2132  160.3458 C.3     1  UNL1        0.0202
      2 C         139.2241  140.4085  159.6200 C.3     1  UNL1        0.0352
      3 C         139.3417  141.7260  160.3274 C.3     1  UNL1        0.1327
      4 O         138.3416  142.8119  160.0615 O.3     1  UNL1       -0.3801
      5 H         137.6913  142.5006  159.4126 H       1  UNL1        0.2108
      6 O         145.2788  143.9483  165.6577 O.2     1  UNL1       -0.2745
      7 C         144.1364  143.8716  164.6887 C.2     1  UNL1        0.2297
      8 C         143.4116  145.1208  164.2832 C.3     1  UNL1        0.0903
      9 C         142.2693  145.0441  163.3142 C.3     1  UNL1        0.0372
     10 C         141.8516  143.7183  162.7506 C.ar    1  UNL1       -0.0085
     11 C         140.7621  143.3470  161.7783 C.ar    1  UNL1       -0.0050
     12 C         140.4593  141.9576  161.3007 C.ar    1  UNL1        0.0037
     13 C         141.2742  140.7999  161.7964 C.ar    1  UNL1       -0.0050
     14 C         142.3918  141.0315  162.7696 C.ar    1  UNL1       -0.0073
     15 C         142.5762  142.4691  163.1560 C.ar    1  UNL1        0.0459
     16 N         143.7186  142.5458  164.1250 N.am    1  UNL1       -0.2589
     17 C         144.2403  141.1556  164.3376 C.3     1  UNL1        0.1029
     18 C         143.4202  140.2197  163.4999 C.3     1  UNL1        0.0495
     19 C         137.6596  139.3937  161.4289 C.3     1  UNL1        0.0722
     20 N         138.0970  139.5350  162.8567 N.3     1  UNL1       -0.2727
     21 C         138.7993  138.4004  163.5419 C.3     1  UNL1        0.0725
     22 C         139.2368  138.5417  164.9697 C.3     1  UNL1        0.0234
     23 C         138.9719  139.8178  165.7124 C.3     1  UNL1        0.0464
     24 C         138.2695  140.9524  165.0272 C.3     1  UNL1        0.0234
     25 C         137.8321  140.8111  163.5994 C.3     1  UNL1        0.0725
     26 C         139.4093  139.9592  167.1402 C.ar    1  UNL1        0.1003
     27 N         138.6980  139.4057  168.3392 N.ar    1  UNL1       -0.0814
     28 O         139.4839  139.7833  169.5597 O.2     1  UNL1       -0.3536
     29 C         140.6810  140.5701  169.1150 C.ar    1  UNL1        0.1787
     30 C         141.8071  141.2017  169.8785 C.ar    1  UNL1        0.0698
     31 C         142.8872  141.9419  169.1468 C.ar    1  UNL1        0.1433
     32 F         144.0133  142.5735  169.9103 F       1  UNL1       -0.2041
     33 C         142.8411  142.0506  167.6514 C.ar    1  UNL1        0.0299
     34 C         141.7150  141.4191  166.8879 C.ar    1  UNL1        0.0067
     35 C         140.6349  140.6788  167.6197 C.ar    1  UNL1        0.0540
@<TRIPOS>BOND
     1     6     7    2
     2     7     8    1
     3     8     9    1
     4     9    10    1
     5    10    11   ar
     6    11    12   ar
     7    12     3    1
     8     3     4    1
     9     3     2    1
    10     2     1    1
    11     1    19    1
    12    19    20    1
    13    20    21    1
    14    21    22    1
    15    22    23    1
    16    23    26    1
    17    26    27   ar
    18    27    28   ar
    19    28    29   ar
    20    29    30   ar
    21    30    31   ar
    22    31    32    1
    23    31    33   ar
    24    33    34   ar
    25    34    35   ar
    26    23    24    1
    27    24    25    1
    28    12    13   ar
    29    13    14   ar
    30    14    15   ar
    31    15    16    1
    32    16    17    1
    33    17    18    1
    34    16     7   am
    35    15    10   ar
    36    25    20    1
    37    18    14    1
    38    35    26   ar
    39    35    29   ar
    40     4     5    1
@<TRIPOS>MOLECULE
*****
 35 40 0 0 0
SMALL
GASTEIGER

@<TRIPOS>ATOM
      1 C         139.0092  138.1552  160.6950 C.3     1  UNL1        0.0202
      2 C         139.7632  139.1382  159.8494 C.3     1  UNL1        0.0352
      3 C         141.2368  139.3290  160.0547 C.3     1  UNL1        0.1327
      4 O         142.2160  138.6045  159.1792 O.3     1  UNL1       -0.3801
      5 H         141.7343  138.0590  158.5379 H       1  UNL1        0.2108
      6 O         144.8326  143.9524  165.9107 O.2     1  UNL1       -0.2745
      7 C         144.4836  142.9784  164.8247 C.2     1  UNL1        0.2297
      8 C         145.5303  142.0484  164.2864 C.3     1  UNL1        0.0903
      9 C         145.1813  141.0745  163.2005 C.3     1  UNL1        0.0372
     10 C         143.7857  141.0303  162.6526 C.ar    1  UNL1       -0.0085
     11 C         143.1614  140.1732  161.5822 C.ar    1  UNL1       -0.0050
     12 C         141.7313  140.2442  161.1353 C.ar    1  UNL1        0.0037
     13 C         140.7956  141.2305  161.7692 C.ar    1  UNL1       -0.0050
     14 C         141.2901  142.1457  162.8498 C.ar    1  UNL1       -0.0073
     15 C         142.7390  141.9603  163.1907 C.ar    1  UNL1        0.0459
     16 N         143.0879  142.9343  164.2768 N.am    1  UNL1       -0.2589
     17 C         141.8547  143.7217  164.6071 C.3     1  UNL1        0.1029
     18 C         140.7436  143.2343  163.7252 C.3     1  UNL1        0.0495
     19 C         137.9610  138.6389  161.6528 C.3     1  UNL1        0.0722
     20 N         138.3220  138.9168  163.0820 N.3     1  UNL1       -0.2727
     21 C         137.9983  140.2484  163.6920 C.3     1  UNL1        0.0725
     22 C         138.3593  140.5263  165.1212 C.3     1  UNL1        0.0234
     23 C         139.0439  139.4726  165.9403 C.3     1  UNL1        0.0464
     24 C         139.3676  138.1410  165.3302 C.3     1  UNL1        0.0234
     25 C         139.0067  137.8631  163.9011 C.3     1  UNL1        0.0725
     26 C         139.4049  139.7505  167.3694 C.ar    1  UNL1        0.1003
     27 N         138.5681  139.4218  168.5701 N.ar    1  UNL1       -0.0814
     28 O         139.3120  139.8740  169.7915 O.2     1  UNL1       -0.3536
     29 C         140.6087  140.4822  169.3458 C.ar    1  UNL1        0.1787
     30 C         141.7446  141.0957  170.1096 C.ar    1  UNL1        0.0698
     31 C         142.9379  141.6328  169.3764 C.ar    1  UNL1        0.1433
     32 F         144.0739  142.2462  170.1402 F       1  UNL1       -0.2041
     33 C         142.9953  141.5564  167.8795 C.ar    1  UNL1        0.0299
     34 C         141.8594  140.9429  167.1157 C.ar    1  UNL1        0.0067
     35 C         140.6661  140.4058  167.8488 C.ar    1  UNL1        0.0540
@<TRIPOS>BOND
     1     6     7    2
     2     7     8    1
     3     8     9    1
     4     9    10    1
     5    10    11   ar
     6    11    12   ar
     7    12     3    1
     8     3     4    1
     9     3     2    1
    10     2     1    1
    11     1    19    1
    12    19    20    1
    13    20    21    1
    14    21    22    1
    15    22    23    1
    16    23    26    1
    17    26    27   ar
    18    27    28   ar
    19    28    29   ar
    20    29    30   ar
    21    30    31   ar
    22    31    32    1
    23    31    33   ar
    24    33    34   ar
    25    34    35   ar
    26    23    24    1
    27    24    25    1
    28    12    13   ar
    29    13    14   ar
    30    14    15   ar
    31    15    16    1
    32    16    17    1
    33    17    18    1
    34    16     7   am
    35    15    10   ar
    36    25    20    1
    37    18    14    1
    38    35    26   ar
    39    35    29   ar
    40     4     5    1
@<TRIPOS>MOLECULE
*****
 35 40 0 0 0
SMALL
GASTEIGER

@<TRIPOS>ATOM
      1 C         143.4276  138.7653  160.1661 C.3     1  UNL1        0.0202
      2 C         142.3785  139.6697  159.5903 C.3     1  UNL1        0.0352
      3 C         141.0239  139.7496  160.2296 C.3     1  UNL1        0.1327
      4 O         139.9678  138.7445  159.8769 O.3     1  UNL1       -0.3801
      5 H         140.3221  138.1178  159.2267 H       1  UNL1        0.2108
      6 O         138.4906  145.3437  165.7872 O.2     1  UNL1       -0.2745
      7 C         138.6429  144.2075  164.8198 C.2     1  UNL1        0.2297
      8 C         137.4997  143.2655  164.5833 C.3     1  UNL1        0.0903
      9 C         137.6519  142.1294  163.6159 C.3     1  UNL1        0.0372
     10 C         138.9472  141.9350  162.8850 C.ar    1  UNL1       -0.0085
     11 C         139.3773  140.9023  161.8758 C.ar    1  UNL1       -0.0050
     12 C         140.7254  140.8344  161.2215 C.ar    1  UNL1        0.0037
     13 C         141.7750  141.8515  161.5592 C.ar    1  UNL1       -0.0050
     14 C         141.4765  142.9363  162.5511 C.ar    1  UNL1       -0.0073
     15 C         140.0904  142.8769  163.1215 C.ar    1  UNL1        0.0459
     16 N         139.9382  144.0132  164.0889 N.am    1  UNL1       -0.2589
     17 C         141.2302  144.7748  164.1164 C.3     1  UNL1        0.1029
     18 C         142.1809  144.1092  163.1660 C.3     1  UNL1        0.0495
     19 C         143.0581  137.7638  161.2199 C.3     1  UNL1        0.0722
     20 N         142.9513  138.1891  162.6543 N.3     1  UNL1       -0.2727
     21 C         144.0332  139.0253  163.2712 C.3     1  UNL1        0.0725
     22 C         143.9264  139.4507  164.7056 C.3     1  UNL1        0.0234
     23 C         142.7378  139.0399  165.5232 C.3     1  UNL1        0.0464
     24 C         141.6559  138.2038  164.9063 C.3     1  UNL1        0.0234
     25 C         141.7626  137.7784  163.4719 C.3     1  UNL1        0.0725
     26 C         142.6310  139.4653  166.9577 C.ar    1  UNL1        0.1003
     27 N         143.2015  138.7367  168.1382 N.ar    1  UNL1       -0.0814
     28 O         142.8581  139.5150  169.3735 O.2     1  UNL1       -0.3536
     29 C         142.0753  140.7247  168.9565 C.ar    1  UNL1        0.1787
     30 C         141.4721  141.8502  169.7435 C.ar    1  UNL1        0.0698
     31 C         140.7286  142.9450  169.0375 C.ar    1  UNL1        0.1433
     32 F         140.1254  144.0706  169.8244 F       1  UNL1       -0.2041
     33 C         140.5882  142.9143  167.5444 C.ar    1  UNL1        0.0299
     34 C         141.1914  141.7887  166.7574 C.ar    1  UNL1        0.0067
     35 C         141.9349  140.6940  167.4634 C.ar    1  UNL1        0.0540
@<TRIPOS>BOND
     1     6     7    2
     2     7     8    1
     3     8     9    1
     4     9    10    1
     5    10    11   ar
     6    11    12   ar
     7    12     3    1
     8     3     4    1
     9     3     2    1
    10     2     1    1
    11     1    19    1
    12    19    20    1
    13    20    21    1
    14    21    22    1
    15    22    23    1
    16    23    26    1
    17    26    27   ar
    18    27    28   ar
    19    28    29   ar
    20    29    30   ar
    21    30    31   ar
    22    31    32    1
    23    31    33   ar
    24    33    34   ar
    25    34    35   ar
    26    23    24    1
    27    24    25    1
    28    12    13   ar
    29    13    14   ar
    30    14    15   ar
    31    15    16    1
    32    16    17    1
    33    17    18    1
    34    16     7   am
    35    15    10   ar
    36    25    20    1
    37    18    14    1
    38    35    26   ar
    39    35    29   ar
    40     4     5    1
@<TRIPOS>MOLECULE
*****
 35 40 0 0 0
SMALL
GASTEIGER

@<TRIPOS>ATOM
      1 C         140.3667  140.0549  167.9129 C.3     1  UNL1        0.0202
      2 C         138.9123  139.7345  168.0914 C.3     1  UNL1        0.0352
      3 C         138.1764  138.9719  167.0298 C.3     1  UNL1        0.1327
      4 O         137.1091  137.9907  167.4148 O.3     1  UNL1       -0.3801
      5 H         137.0214  137.9708  168.3806 H       1  UNL1        0.2108
      6 O         139.4668  140.9858  159.1002 O.2     1  UNL1       -0.2745
      7 C         139.0522  140.9001  160.5392 C.2     1  UNL1        0.2297
      8 C         138.1738  141.9623  161.1312 C.3     1  UNL1        0.0903
      9 C         137.7592  141.8768  162.5701 C.3     1  UNL1        0.0372
     10 C         138.2228  140.7290  163.4172 C.ar    1  UNL1       -0.0085
     11 C         137.9687  140.3908  164.8633 C.ar    1  UNL1       -0.0050
     12 C         138.5078  139.1903  165.5833 C.ar    1  UNL1        0.0037
     13 C         139.3784  138.2084  164.8567 C.ar    1  UNL1       -0.0050
     14 C         139.7098  138.4269  163.4102 C.ar    1  UNL1       -0.0073
     15 C         139.1011  139.6668  162.8254 C.ar    1  UNL1        0.0459
     16 N         139.5158  139.7524  161.3864 N.am    1  UNL1       -0.2589
     17 C         140.3807  138.5653  161.0818 C.3     1  UNL1        0.1029
     18 C         140.5006  137.7461  162.3327 C.3     1  UNL1        0.0495
     19 C         140.8150  141.4838  167.8284 C.3     1  UNL1        0.0722
     20 N         140.6932  142.2327  166.5345 N.3     1  UNL1       -0.2727
     21 C         141.5044  141.8117  165.3450 C.3     1  UNL1        0.0725
     22 C         141.3827  142.5606  164.0510 C.3     1  UNL1        0.0234
     23 C         140.4498  143.7306  163.9465 C.3     1  UNL1        0.0464
     24 C         139.6386  144.1516  165.1360 C.3     1  UNL1        0.0234
     25 C         139.7603  143.4027  166.4299 C.3     1  UNL1        0.0725
     26 C         140.3281  144.4795  162.6526 C.ar    1  UNL1        0.1003
     27 N         139.4211  145.6451  162.3904 N.ar    1  UNL1       -0.0814
     28 O         139.6244  146.0803  160.9695 O.2     1  UNL1       -0.3536
     29 C         140.6571  145.1836  160.3534 C.ar    1  UNL1        0.1787
     30 C         141.2576  145.1402  158.9795 C.ar    1  UNL1        0.0698
     31 C         142.2930  144.1075  158.6459 C.ar    1  UNL1        0.1433
     32 F         142.8936  144.0641  157.2720 F       1  UNL1       -0.2041
     33 C         142.7279  143.1182  159.6861 C.ar    1  UNL1        0.0299
     34 C         142.1274  143.1616  161.0600 C.ar    1  UNL1        0.0067
     35 C         141.0920  144.1943  161.3936 C.ar    1  UNL1        0.0540
@<TRIPOS>BOND
     1     6     7    2
     2     7     8    1
     3     8     9    1
     4     9    10    1
     5    10    11   ar
     6    11    12   ar
     7    12     3    1
     8     3     4    1
     9     3     2    1
    10     2     1    1
    11     1    19    1
    12    19    20    1
    13    20    21    1
    14    21    22    1
    15    22    23    1
    16    23    26    1
    17    26    27   ar
    18    27    28   ar
    19    28    29   ar
    20    29    30   ar
    21    30    31   ar
    22    31    32    1
    23    31    33   ar
    24    33    34   ar
    25    34    35   ar
    26    23    24    1
    27    24    25    1
    28    12    13   ar
    29    13    14   ar
    30    14    15   ar
    31    15    16    1
    32    16    17    1
    33    17    18    1
    34    16     7   am
    35    15    10   ar
    36    25    20    1
    37    18    14    1
    38    35    26   ar
    39    35    29   ar
    40     4     5    1
@<TRIPOS>MOLECULE
*****
 35 40 0 0 0
SMALL
GASTEIGER

@<TRIPOS>ATOM
      1 C         143.1748  138.9052  166.4667 C.3     1  UNL1        0.0202
      2 C         142.4966  139.6002  167.6100 C.3     1  UNL1        0.0352
      3 C         142.6078  141.0890  167.7550 C.3     1  UNL1        0.1327
      4 O         143.1858  141.6795  169.0070 O.3     1  UNL1       -0.3801
      5 H         143.4356  140.9665  169.6153 H       1  UNL1        0.2108
      6 O         139.1249  145.8360  161.9296 O.2     1  UNL1       -0.2745
      7 C         139.4403  144.9136  163.0697 C.2     1  UNL1        0.2297
      8 C         138.3280  144.2951  163.8638 C.3     1  UNL1        0.0903
      9 C         138.6433  143.3727  165.0038 C.3     1  UNL1        0.0372
     10 C         140.0708  143.0687  165.3498 C.ar    1  UNL1       -0.0085
     11 C         140.6731  142.1967  166.4208 C.ar    1  UNL1       -0.0050
     12 C         142.1409  141.9874  166.6483 C.ar    1  UNL1        0.0037
     13 C         143.1419  142.6764  165.7689 C.ar    1  UNL1       -0.0050
     14 C         142.6751  143.5748  164.6621 C.ar    1  UNL1       -0.0073
     15 C         141.1831  143.6872  164.5558 C.ar    1  UNL1        0.0459
     16 N         140.8678  144.6096  163.4157 N.am    1  UNL1       -0.2589
     17 C         142.1649  145.0673  162.8174 C.3     1  UNL1        0.1029
     18 C         143.2818  144.4277  163.5878 C.3     1  UNL1        0.0495
     19 C         142.3565  138.3086  165.3602 C.3     1  UNL1        0.0722
     20 N         141.7406  139.1967  164.3201 N.3     1  UNL1       -0.2727
     21 C         142.6171  139.9754  163.3843 C.3     1  UNL1        0.0725
     22 C         142.0011  140.8635  162.3442 C.3     1  UNL1        0.0234
     23 C         140.5088  140.9731  162.2398 C.3     1  UNL1        0.0464
     24 C         139.6323  140.1944  163.1756 C.3     1  UNL1        0.0234
     25 C         140.2482  139.3063  164.2157 C.3     1  UNL1        0.0725
     26 C         139.8929  141.8612  161.1997 C.ar    1  UNL1        0.1003
     27 N         138.4245  142.0760  160.9811 N.ar    1  UNL1       -0.0814
     28 O         138.2613  143.0380  159.8419 O.2     1  UNL1       -0.3536
     29 C         139.6288  143.4179  159.3565 C.ar    1  UNL1        0.1787
     30 C         140.0861  144.3322  158.2588 C.ar    1  UNL1        0.0698
     31 C         141.5517  144.5191  158.0002 C.ar    1  UNL1        0.1433
     32 F         142.0091  145.4334  156.9025 F       1  UNL1       -0.2041
     33 C         142.5601  143.7919  158.8394 C.ar    1  UNL1        0.0299
     34 C         142.1028  142.8776  159.9372 C.ar    1  UNL1        0.0067
     35 C         140.6372  142.6906  160.1957 C.ar    1  UNL1        0.0540
@<TRIPOS>BOND
     1     6     7    2
     2     7     8    1
     3     8     9    1
     4     9    10    1
     5    10    11   ar
     6    11    12   ar
     7    12     3    1
     8     3     4    1
     9     3     2    1
    10     2     1    1
    11     1    19    1
    12    19    20    1
    13    20    21    1
    14    21    22    1
    15    22    23    1
    16    23    26    1
    17    26    27   ar
    18    27    28   ar
    19    28    29   ar
    20    29    30   ar
    21    30    31   ar
    22    31    32    1
    23    31    33   ar
    24    33    34   ar
    25    34    35   ar
    26    23    24    1
    27    24    25    1
    28    12    13   ar
    29    13    14   ar
    30    14    15   ar
    31    15    16    1
    32    16    17    1
    33    17    18    1
    34    16     7   am
    35    15    10   ar
    36    25    20    1
    37    18    14    1
    38    35    26   ar
    39    35    29   ar
    40     4     5    1
@<TRIPOS>MOLECULE
*****
 35 40 0 0 0
SMALL
GASTEIGER

@<TRIPOS>ATOM
      1 C         144.0475  142.8647  161.1158 C.3     1  UNL1        0.0202
      2 C         142.8883  142.8585  160.1639 C.3     1  UNL1        0.0352
      3 C         141.4899  143.0146  160.6837 C.3     1  UNL1        0.1327
      4 O         140.6971  144.2424  160.3460 O.3     1  UNL1       -0.3801
      5 H         141.2316  144.8292  159.7885 H       1  UNL1        0.2108
      6 O         138.0702  137.7761  166.1117 O.2     1  UNL1       -0.2745
      7 C         138.6565  138.9446  165.3761 C.2     1  UNL1        0.2297
      8 C         138.7630  140.2795  166.0521 C.3     1  UNL1        0.0903
      9 C         139.3492  141.4479  165.3167 C.3     1  UNL1        0.0372
     10 C         139.8290  141.2816  163.9052 C.ar    1  UNL1       -0.0085
     11 C         140.4490  142.2596  162.9413 C.ar    1  UNL1       -0.0050
     12 C         140.8844  141.9431  161.5411 C.ar    1  UNL1        0.0037
     13 C         140.7141  140.5552  160.9984 C.ar    1  UNL1       -0.0050
     14 C         140.1086  139.4837  161.8558 C.ar    1  UNL1       -0.0073
     15 C         139.7225  139.9468  163.2292 C.ar    1  UNL1        0.0459
     16 N         139.1362  138.7783  163.9647 N.am    1  UNL1       -0.2589
     17 C         139.1600  137.5930  163.0458 C.3     1  UNL1        0.1029
     18 C         139.7609  138.0289  161.7424 C.3     1  UNL1        0.0495
     19 C         144.4656  141.5953  161.7968 C.3     1  UNL1        0.0722
     20 N         143.9961  141.3023  163.1909 N.3     1  UNL1       -0.2727
     21 C         144.0277  142.3790  164.2349 C.3     1  UNL1        0.0725
     22 C         143.5581  142.0860  165.6290 C.3     1  UNL1        0.0234
     23 C         143.0570  140.7163  165.9793 C.3     1  UNL1        0.0464
     24 C         143.0254  139.6395  164.9353 C.3     1  UNL1        0.0234
     25 C         143.4949  139.9325  163.5412 C.3     1  UNL1        0.0725
     26 C         142.5874  140.4233  167.3734 C.ar    1  UNL1        0.1003
     27 N         142.9011  139.1907  168.1687 N.ar    1  UNL1       -0.0814
     28 O         142.2293  139.3170  169.5038 O.2     1  UNL1       -0.3536
     29 C         141.5005  140.6277  169.5338 C.ar    1  UNL1        0.1787
     30 C         140.6639  141.2870  170.5899 C.ar    1  UNL1        0.0698
     31 C         140.0486  142.6299  170.3294 C.ar    1  UNL1        0.1433
     32 F         139.2119  143.2892  171.3856 F       1  UNL1       -0.2041
     33 C         140.2699  143.3136  169.0128 C.ar    1  UNL1        0.0299
     34 C         141.1065  142.6544  167.9566 C.ar    1  UNL1        0.0067
     35 C         141.7218  141.3114  168.2171 C.ar    1  UNL1        0.0540
@<TRIPOS>BOND
     1     6     7    2
     2     7     8    1
     3     8     9    1
     4     9    10    1
     5    10    11   ar
     6    11    12   ar
     7    12     3    1
     8     3     4    1
     9     3     2    1
    10     2     1    1
    11     1    19    1
    12    19    20    1
    13    20    21    1
    14    21    22    1
    15    22    23    1
    16    23    26    1
    17    26    27   ar
    18    27    28   ar
    19    28    29   ar
    20    29    30   ar
    21    30    31   ar
    22    31    32    1
    23    31    33   ar
    24    33    34   ar
    25    34    35   ar
    26    23    24    1
    27    24    25    1
    28    12    13   ar
    29    13    14   ar
    30    14    15   ar
    31    15    16    1
    32    16    17    1
    33    17    18    1
    34    16     7   am
    35    15    10   ar
    36    25    20    1
    37    18    14    1
    38    35    26   ar
    39    35    29   ar
    40     4     5    1
