@<TRIPOS>MOLECULE
*****
 23 25 0 0 0
SMALL
GASTEIGER

@<TRIPOS>ATOM
      1 O         138.2880  139.5864  170.2870 O.2     1  UNL1       -0.2831
      2 C         139.1035  139.9631  169.0857 C.ar    1  UNL1        0.2351
      3 C         138.6878  139.4987  167.7214 C.ar    1  UNL1        0.2081
      4 O         137.4566  138.6575  167.5583 O.3     1  UNL1       -0.5007
      5 C         139.5033  139.8755  166.5201 C.ar    1  UNL1        0.1819
      6 O         140.7345  140.7166  166.6832 O.2     1  UNL1       -0.4502
      7 C         141.1502  141.1811  168.0476 C.ar    1  UNL1        0.1487
      8 C         142.3814  142.0222  168.2106 C.ar    1  UNL1        0.0407
      9 C         142.7971  142.4866  169.5750 C.ar    1  UNL1        0.0397
     10 C         141.9816  142.1099  170.7763 C.ar    1  UNL1        0.1340
     11 O         142.3974  142.5744  172.1407 O.3     1  UNL1       -0.5055
     12 C         140.7505  141.2688  170.6132 C.ar    1  UNL1        0.0430
     13 C         140.3348  140.8043  169.2489 C.ar    1  UNL1        0.0796
     14 H         136.9472  138.4222  168.3087 H       1  UNL1        0.2924
     15 H         143.1665  143.0998  172.2425 H       1  UNL1        0.2922
     16 C         139.0875  139.4110  165.1557 C.ar    1  UNL1        0.0407
     17 C         139.4992  138.0537  164.6678 C.ar    1  UNL1        0.0033
     18 C         139.0834  137.5893  163.3035 C.ar    1  UNL1        0.0032
     19 C         138.2560  138.4822  162.4271 C.ar    1  UNL1        0.0366
     20 C         137.8444  139.8396  162.9150 C.ar    1  UNL1        0.1338
     21 O         137.0170  140.7325  162.0386 O.3     1  UNL1       -0.5055
     22 C         138.2602  140.3040  164.2793 C.ar    1  UNL1        0.0398
     23 H         136.7573  140.4424  161.1863 H       1  UNL1        0.2922
@<TRIPOS>BOND
     1     1     2    2
     2     2     3   ar
     3     3     4    1
     4     3     5   ar
     5     5    16    1
     6    16    17   ar
     7    17    18   ar
     8    18    19   ar
     9    19    20   ar
    10    20    21    1
    11    20    22   ar
    12     5     6   ar
    13     6     7   ar
    14     7     8   ar
    15     8     9   ar
    16     9    10   ar
    17    10    11    1
    18    10    12   ar
    19    12    13   ar
    20    13     2   ar
    21    22    16   ar
    22    13     7   ar
    23     4    14    1
    24    21    23    1
    25    11    15    1
@<TRIPOS>MOLECULE
*****
 23 25 0 0 0
SMALL
GASTEIGER

@<TRIPOS>ATOM
      1 O         143.1004  138.3651  169.8984 O.2     1  UNL1       -0.2831
      2 C         142.6868  139.2847  168.7878 C.ar    1  UNL1        0.2351
      3 C         143.0827  138.9785  167.3738 C.ar    1  UNL1        0.2081
      4 O         143.8922  137.7526  167.0703 O.3     1  UNL1       -0.5007
      5 C         142.6692  139.8981  166.2633 C.ar    1  UNL1        0.1819
      6 O         141.8598  141.1239  166.5667 O.2     1  UNL1       -0.4502
      7 C         141.4638  141.4302  167.9807 C.ar    1  UNL1        0.1487
      8 C         140.6544  142.6560  168.2842 C.ar    1  UNL1        0.0407
      9 C         140.2585  142.9622  169.6982 C.ar    1  UNL1        0.0397
     10 C         140.6720  142.0427  170.8087 C.ar    1  UNL1        0.1340
     11 O         140.2760  142.3489  172.2228 O.3     1  UNL1       -0.5055
     12 C         141.4814  140.8168  170.5053 C.ar    1  UNL1        0.0430
     13 C         141.8774  140.5106  169.0913 C.ar    1  UNL1        0.0796
     14 H         144.1506  137.1781  167.7640 H       1  UNL1        0.2924
     15 H         139.7704  143.1147  172.4123 H       1  UNL1        0.2922
     16 C         143.0652  139.5918  164.8492 C.ar    1  UNL1        0.0407
     17 C         144.1721  140.3651  164.1960 C.ar    1  UNL1        0.0033
     18 C         144.5680  140.0588  162.7821 C.ar    1  UNL1        0.0032
     19 C         143.8570  138.9791  162.0212 C.ar    1  UNL1        0.0366
     20 C         142.7501  138.2058  162.6744 C.ar    1  UNL1        0.1338
     21 O         142.0391  137.1261  161.9136 O.3     1  UNL1       -0.5055
     22 C         142.3542  138.5121  164.0884 C.ar    1  UNL1        0.0398
     23 H         142.2864  136.9348  161.0303 H       1  UNL1        0.2922
@<TRIPOS>BOND
     1     1     2    2
     2     2     3   ar
     3     3     4    1
     4     3     5   ar
     5     5    16    1
     6    16    17   ar
     7    17    18   ar
     8    18    19   ar
     9    19    20   ar
    10    20    21    1
    11    20    22   ar
    12     5     6   ar
    13     6     7   ar
    14     7     8   ar
    15     8     9   ar
    16     9    10   ar
    17    10    11    1
    18    10    12   ar
    19    12    13   ar
    20    13     2   ar
    21    22    16   ar
    22    13     7   ar
    23     4    14    1
    24    21    23    1
    25    11    15    1
@<TRIPOS>MOLECULE
*****
 23 25 0 0 0
SMALL
GASTEIGER

@<TRIPOS>ATOM
      1 O         137.6036  138.0807  166.6410 O.2     1  UNL1       -0.2831
      2 C         138.7422  139.0042  166.3237 C.ar    1  UNL1        0.2351
      3 C         139.3639  139.8295  167.4111 C.ar    1  UNL1        0.2081
      4 O         138.8470  139.7312  168.8158 O.3     1  UNL1       -0.5007
      5 C         140.5025  140.7530  167.0938 C.ar    1  UNL1        0.1819
      6 O         141.0194  140.8513  165.6891 O.2     1  UNL1       -0.4502
      7 C         140.3977  140.0260  164.6017 C.ar    1  UNL1        0.1487
      8 C         140.9146  140.1243  163.1970 C.ar    1  UNL1        0.0407
      9 C         140.2929  139.2991  162.1097 C.ar    1  UNL1        0.0397
     10 C         139.1543  138.3755  162.4269 C.ar    1  UNL1        0.1340
     11 O         138.5326  137.5503  161.3395 O.3     1  UNL1       -0.5055
     12 C         138.6374  138.2772  163.8316 C.ar    1  UNL1        0.0430
     13 C         139.2591  139.1025  164.9190 C.ar    1  UNL1        0.0796
     14 H         138.1358  139.1543  169.0141 H       1  UNL1        0.2924
     15 H         138.8555  137.6117  160.4620 H       1  UNL1        0.2922
     16 C         141.1242  141.5783  168.1813 C.ar    1  UNL1        0.0407
     17 C         142.4728  141.2096  168.7246 C.ar    1  UNL1        0.0033
     18 C         143.0945  142.0348  169.8120 C.ar    1  UNL1        0.0032
     19 C         142.3675  143.2288  170.3561 C.ar    1  UNL1        0.0366
     20 C         141.0189  143.5975  169.8127 C.ar    1  UNL1        0.1338
     21 O         140.2919  144.7914  170.3568 O.3     1  UNL1       -0.5055
     22 C         140.3973  142.7722  168.7253 C.ar    1  UNL1        0.0398
     23 H         140.6802  145.3069  171.0360 H       1  UNL1        0.2922
@<TRIPOS>BOND
     1     1     2    2
     2     2     3   ar
     3     3     4    1
     4     3     5   ar
     5     5    16    1
     6    16    17   ar
     7    17    18   ar
     8    18    19   ar
     9    19    20   ar
    10    20    21    1
    11    20    22   ar
    12     5     6   ar
    13     6     7   ar
    14     7     8   ar
    15     8     9   ar
    16     9    10   ar
    17    10    11    1
    18    10    12   ar
    19    12    13   ar
    20    13     2   ar
    21    22    16   ar
    22    13     7   ar
    23     4    14    1
    24    21    23    1
    25    11    15    1
@<TRIPOS>MOLECULE
*****
 23 25 0 0 0
SMALL
GASTEIGER

@<TRIPOS>ATOM
      1 O         138.9897  137.8019  164.5078 O.2     1  UNL1       -0.2831
      2 C         140.0969  138.6591  165.0458 C.ar    1  UNL1        0.2351
      3 C         139.8926  139.4429  166.3083 C.ar    1  UNL1        0.2081
      4 O         138.5812  139.3696  167.0328 O.3     1  UNL1       -0.5007
      5 C         140.9998  140.3001  166.8463 C.ar    1  UNL1        0.1819
      6 O         142.3112  140.3734  166.1219 O.2     1  UNL1       -0.4502
      7 C         142.5155  139.5896  164.8593 C.ar    1  UNL1        0.1487
      8 C         143.8268  139.6629  164.1349 C.ar    1  UNL1        0.0407
      9 C         144.0311  138.8791  162.8724 C.ar    1  UNL1        0.0397
     10 C         142.9239  138.0219  162.3344 C.ar    1  UNL1        0.1340
     11 O         143.1282  137.2381  161.0719 O.3     1  UNL1       -0.5055
     12 C         141.6125  137.9486  163.0588 C.ar    1  UNL1        0.0430
     13 C         141.4083  138.7324  164.3213 C.ar    1  UNL1        0.0796
     14 H         137.8896  138.8342  166.6967 H       1  UNL1        0.2924
     15 H         143.9474  137.2839  160.6193 H       1  UNL1        0.2922
     16 C         140.7955  141.0840  168.1088 C.ar    1  UNL1        0.0407
     17 C         140.5746  142.5661  168.0440 C.ar    1  UNL1        0.0033
     18 C         140.3703  143.3499  169.3064 C.ar    1  UNL1        0.0032
     19 C         140.3869  142.6515  170.6338 C.ar    1  UNL1        0.0366
     20 C         140.6078  141.1693  170.6987 C.ar    1  UNL1        0.1338
     21 O         140.6244  140.4709  172.0261 O.3     1  UNL1       -0.5055
     22 C         140.8121  140.3855  169.4362 C.ar    1  UNL1        0.0398
     23 H         140.4968  140.9605  172.8147 H       1  UNL1        0.2922
@<TRIPOS>BOND
     1     1     2    2
     2     2     3   ar
     3     3     4    1
     4     3     5   ar
     5     5    16    1
     6    16    17   ar
     7    17    18   ar
     8    18    19   ar
     9    19    20   ar
    10    20    21    1
    11    20    22   ar
    12     5     6   ar
    13     6     7   ar
    14     7     8   ar
    15     8     9   ar
    16     9    10   ar
    17    10    11    1
    18    10    12   ar
    19    12    13   ar
    20    13     2   ar
    21    22    16   ar
    22    13     7   ar
    23     4    14    1
    24    21    23    1
    25    11    15    1
@<TRIPOS>MOLECULE
*****
 23 25 0 0 0
SMALL
GASTEIGER

@<TRIPOS>ATOM
      1 O         142.2299  138.7960  166.1549 O.2     1  UNL1       -0.2831
      2 C         141.7301  140.1656  166.5074 C.ar    1  UNL1        0.2351
      3 C         141.0109  140.9889  165.4804 C.ar    1  UNL1        0.2081
      4 O         140.7914  140.4426  164.1007 O.3     1  UNL1       -0.5007
      5 C         140.5111  142.3586  165.8329 C.ar    1  UNL1        0.1819
      6 O         140.7305  142.9050  167.2125 O.2     1  UNL1       -0.4502
      7 C         141.4498  142.0816  168.2396 C.ar    1  UNL1        0.1487
      8 C         141.6692  142.6280  169.6192 C.ar    1  UNL1        0.0407
      9 C         142.3884  141.8047  170.6462 C.ar    1  UNL1        0.0397
     10 C         142.8882  140.4351  170.2937 C.ar    1  UNL1        0.1340
     11 O         143.6074  139.6118  171.3209 O.3     1  UNL1       -0.5055
     12 C         142.6687  139.8887  168.9141 C.ar    1  UNL1        0.0430
     13 C         141.9495  140.7120  167.8871 C.ar    1  UNL1        0.0796
     14 H         141.1036  139.5870  163.8804 H       1  UNL1        0.2924
     15 H         143.7445  139.9531  172.1827 H       1  UNL1        0.2922
     16 C         139.7919  143.1819  164.8057 C.ar    1  UNL1        0.0407
     17 C         138.3733  142.8565  164.4429 C.ar    1  UNL1        0.0033
     18 C         137.6542  143.6797  163.4158 C.ar    1  UNL1        0.0032
     19 C         138.3536  144.8285  162.7515 C.ar    1  UNL1        0.0366
     20 C         139.7721  145.1539  163.1144 C.ar    1  UNL1        0.1338
     21 O         140.4715  146.3027  162.4501 O.3     1  UNL1       -0.5055
     22 C         140.4913  144.3306  164.1415 C.ar    1  UNL1        0.0398
     23 H         140.0223  146.8169  161.8085 H       1  UNL1        0.2922
@<TRIPOS>BOND
     1     1     2    2
     2     2     3   ar
     3     3     4    1
     4     3     5   ar
     5     5    16    1
     6    16    17   ar
     7    17    18   ar
     8    18    19   ar
     9    19    20   ar
    10    20    21    1
    11    20    22   ar
    12     5     6   ar
    13     6     7   ar
    14     7     8   ar
    15     8     9   ar
    16     9    10   ar
    17    10    11    1
    18    10    12   ar
    19    12    13   ar
    20    13     2   ar
    21    22    16   ar
    22    13     7   ar
    23     4    14    1
    24    21    23    1
    25    11    15    1
@<TRIPOS>MOLECULE
*****
 23 25 0 0 0
SMALL
GASTEIGER

@<TRIPOS>ATOM
      1 O         139.2278  138.9235  166.1352 O.2     1  UNL1       -0.2831
      2 C         139.6053  140.3550  166.3766 C.ar    1  UNL1        0.2351
      3 C         139.7336  141.3020  165.2204 C.ar    1  UNL1        0.2081
      4 O         139.4845  140.8174  163.8228 O.3     1  UNL1       -0.5007
      5 C         140.1112  142.7335  165.4618 C.ar    1  UNL1        0.1819
      6 O         140.3603  143.2180  166.8593 O.2     1  UNL1       -0.4502
      7 C         140.2319  142.2711  168.0155 C.ar    1  UNL1        0.1487
      8 C         140.4810  142.7556  169.4131 C.ar    1  UNL1        0.0407
      9 C         140.3526  141.8087  170.5692 C.ar    1  UNL1        0.0397
     10 C         139.9751  140.3772  170.3279 C.ar    1  UNL1        0.1340
     11 O         139.8467  139.4302  171.4841 O.3     1  UNL1       -0.5055
     12 C         139.7260  139.8926  168.9303 C.ar    1  UNL1        0.0430
     13 C         139.8544  140.8396  167.7742 C.ar    1  UNL1        0.0796
     14 H         139.2487  139.9232  163.6720 H       1  UNL1        0.2924
     15 H         140.0024  139.7329  172.3571 H       1  UNL1        0.2922
     16 C         140.2395  143.6805  164.3055 C.ar    1  UNL1        0.0407
     17 C         139.0352  144.4221  163.8062 C.ar    1  UNL1        0.0033
     18 C         139.1636  145.3690  162.6500 C.ar    1  UNL1        0.0032
     19 C         140.4964  145.5743  161.9931 C.ar    1  UNL1        0.0366
     20 C         141.7008  144.8326  162.4925 C.ar    1  UNL1        0.1338
     21 O         143.0336  145.0379  161.8356 O.3     1  UNL1       -0.5055
     22 C         141.5724  143.8857  163.6487 C.ar    1  UNL1        0.0398
     23 H         143.1138  145.6294  161.1133 H       1  UNL1        0.2922
@<TRIPOS>BOND
     1     1     2    2
     2     2     3   ar
     3     3     4    1
     4     3     5   ar
     5     5    16    1
     6    16    17   ar
     7    17    18   ar
     8    18    19   ar
     9    19    20   ar
    10    20    21    1
    11    20    22   ar
    12     5     6   ar
    13     6     7   ar
    14     7     8   ar
    15     8     9   ar
    16     9    10   ar
    17    10    11    1
    18    10    12   ar
    19    12    13   ar
    20    13     2   ar
    21    22    16   ar
    22    13     7   ar
    23     4    14    1
    24    21    23    1
    25    11    15    1
@<TRIPOS>MOLECULE
*****
 23 25 0 0 0
SMALL
GASTEIGER

@<TRIPOS>ATOM
      1 O         143.3428  142.4907  166.7341 O.2     1  UNL1       -0.2831
      2 C         142.1074  141.6566  166.9007 C.ar    1  UNL1        0.2351
      3 C         141.4445  141.0497  165.6998 C.ar    1  UNL1        0.2081
      4 O         142.0172  141.2770  164.3321 O.3     1  UNL1       -0.5007
      5 C         140.2091  140.2155  165.8664 C.ar    1  UNL1        0.1819
      6 O         139.6364  139.9882  167.2340 O.2     1  UNL1       -0.4502
      7 C         140.2993  140.5951  168.4351 C.ar    1  UNL1        0.1487
      8 C         139.7266  140.3678  169.8027 C.ar    1  UNL1        0.0407
      9 C         140.3895  140.9747  171.0036 C.ar    1  UNL1        0.0397
     10 C         141.6249  141.8088  170.8370 C.ar    1  UNL1        0.1340
     11 O         142.2878  142.4157  172.0380 O.3     1  UNL1       -0.5055
     12 C         142.1976  142.0361  169.4694 C.ar    1  UNL1        0.0430
     13 C         141.5347  141.4293  168.2684 C.ar    1  UNL1        0.0796
     14 H         142.7889  141.7981  164.2280 H       1  UNL1        0.2924
     15 H         141.9300  142.2737  172.8923 H       1  UNL1        0.2922
     16 C         139.5463  139.6086  164.6654 C.ar    1  UNL1        0.0407
     17 C         139.8466  138.1906  164.2794 C.ar    1  UNL1        0.0033
     18 C         139.1838  137.5838  163.0784 C.ar    1  UNL1        0.0032
     19 C         138.2206  138.3950  162.2634 C.ar    1  UNL1        0.0366
     20 C         137.9202  139.8130  162.6494 C.ar    1  UNL1        0.1338
     21 O         136.9570  140.6242  161.8344 O.3     1  UNL1       -0.5055
     22 C         138.5830  140.4198  163.8504 C.ar    1  UNL1        0.0398
     23 H         136.5430  140.2451  161.0842 H       1  UNL1        0.2922
@<TRIPOS>BOND
     1     1     2    2
     2     2     3   ar
     3     3     4    1
     4     3     5   ar
     5     5    16    1
     6    16    17   ar
     7    17    18   ar
     8    18    19   ar
     9    19    20   ar
    10    20    21    1
    11    20    22   ar
    12     5     6   ar
    13     6     7   ar
    14     7     8   ar
    15     8     9   ar
    16     9    10   ar
    17    10    11    1
    18    10    12   ar
    19    12    13   ar
    20    13     2   ar
    21    22    16   ar
    22    13     7   ar
    23     4    14    1
    24    21    23    1
    25    11    15    1
@<TRIPOS>MOLECULE
*****
 23 25 0 0 0
SMALL
GASTEIGER

@<TRIPOS>ATOM
      1 O         144.0684  142.8538  164.0284 O.2     1  UNL1       -0.2831
      2 C         142.6456  143.0238  164.4718 C.ar    1  UNL1        0.2351
      3 C         142.1882  142.4275  165.7699 C.ar    1  UNL1        0.2081
      4 O         143.1536  141.6612  166.6248 O.3     1  UNL1       -0.5007
      5 C         140.7653  142.5975  166.2132 C.ar    1  UNL1        0.1819
      6 O         139.7998  143.3637  165.3585 O.2     1  UNL1       -0.4502
      7 C         140.2572  143.9601  164.0603 C.ar    1  UNL1        0.1487
      8 C         139.2917  144.7263  163.2055 C.ar    1  UNL1        0.0407
      9 C         139.7491  145.3226  161.9074 C.ar    1  UNL1        0.0397
     10 C         141.1720  145.1526  161.4640 C.ar    1  UNL1        0.1340
     11 O         141.6294  145.7490  160.1658 O.3     1  UNL1       -0.5055
     12 C         142.1375  144.3864  162.3188 C.ar    1  UNL1        0.0430
     13 C         141.6801  143.7901  163.6169 C.ar    1  UNL1        0.0796
     14 H         144.0425  141.5550  166.3478 H       1  UNL1        0.2924
     15 H         141.0263  146.2276  159.6319 H       1  UNL1        0.2922
     16 C         140.3079  142.0011  167.5115 C.ar    1  UNL1        0.0407
     17 C         139.8497  140.5737  167.5609 C.ar    1  UNL1        0.0033
     18 C         139.3924  139.9775  168.8591 C.ar    1  UNL1        0.0032
     19 C         139.3932  140.8086  170.1078 C.ar    1  UNL1        0.0366
     20 C         139.8514  142.2360  170.0583 C.ar    1  UNL1        0.1338
     21 O         139.8523  143.0672  171.3070 O.3     1  UNL1       -0.5055
     22 C         140.3088  142.8323  168.7601 C.ar    1  UNL1        0.0398
     23 H         139.5666  142.6947  172.1179 H       1  UNL1        0.2922
@<TRIPOS>BOND
     1     1     2    2
     2     2     3   ar
     3     3     4    1
     4     3     5   ar
     5     5    16    1
     6    16    17   ar
     7    17    18   ar
     8    18    19   ar
     9    19    20   ar
    10    20    21    1
    11    20    22   ar
    12     5     6   ar
    13     6     7   ar
    14     7     8   ar
    15     8     9   ar
    16     9    10   ar
    17    10    11    1
    18    10    12   ar
    19    12    13   ar
    20    13     2   ar
    21    22    16   ar
    22    13     7   ar
    23     4    14    1
    24    21    23    1
    25    11    15    1
@<TRIPOS>MOLECULE
*****
 23 25 0 0 0
SMALL
GASTEIGER

@<TRIPOS>ATOM
      1 O         143.7101  142.8104  167.3848 O.2     1  UNL1       -0.2831
      2 C         142.3217  142.2673  167.2193 C.ar    1  UNL1        0.2351
      3 C         141.6099  142.4155  165.9073 C.ar    1  UNL1        0.2081
      4 O         142.2864  143.1067  164.7607 O.3     1  UNL1       -0.5007
      5 C         140.2215  141.8724  165.7418 C.ar    1  UNL1        0.1819
      6 O         139.5449  141.1812  166.8882 O.2     1  UNL1       -0.4502
      7 C         140.2567  141.0330  168.2003 C.ar    1  UNL1        0.1487
      8 C         139.5801  140.3418  169.3467 C.ar    1  UNL1        0.0407
      9 C         140.2919  140.1937  170.6587 C.ar    1  UNL1        0.0397
     10 C         141.6803  140.7368  170.8243 C.ar    1  UNL1        0.1340
     11 O         142.3921  140.5886  172.1363 O.3     1  UNL1       -0.5055
     12 C         142.3569  141.4280  169.6778 C.ar    1  UNL1        0.0430
     13 C         141.6451  141.5761  168.3658 C.ar    1  UNL1        0.0796
     14 H         143.1537  143.4460  164.8641 H       1  UNL1        0.2924
     15 H         141.9694  140.1568  172.8525 H       1  UNL1        0.2922
     16 C         139.5097  142.0205  164.4297 C.ar    1  UNL1        0.0407
     17 C         139.5176  140.8929  163.4406 C.ar    1  UNL1        0.0033
     18 C         138.8058  141.0411  162.1286 C.ar    1  UNL1        0.0032
     19 C         138.0861  142.3169  161.8057 C.ar    1  UNL1        0.0366
     20 C         138.0781  143.4445  162.7948 C.ar    1  UNL1        0.1338
     21 O         137.3584  144.7203  162.4719 O.3     1  UNL1       -0.5055
     22 C         138.7899  143.2963  164.1068 C.ar    1  UNL1        0.0398
     23 H         136.9138  144.8129  161.6523 H       1  UNL1        0.2922
@<TRIPOS>BOND
     1     1     2    2
     2     2     3   ar
     3     3     4    1
     4     3     5   ar
     5     5    16    1
     6    16    17   ar
     7    17    18   ar
     8    18    19   ar
     9    19    20   ar
    10    20    21    1
    11    20    22   ar
    12     5     6   ar
    13     6     7   ar
    14     7     8   ar
    15     8     9   ar
    16     9    10   ar
    17    10    11    1
    18    10    12   ar
    19    12    13   ar
    20    13     2   ar
    21    22    16   ar
    22    13     7   ar
    23     4    14    1
    24    21    23    1
    25    11    15    1
