@<TRIPOS>MOLECULE
*****
 28 31 0 0 0
SMALL
GASTEIGER

@<TRIPOS>ATOM
      1 C         140.7881  139.4068  165.1722 C.ar    1  UNL1        0.0191
      2 C         141.2369  137.9948  164.9381 C.ar    1  UNL1        0.0023
      3 C         141.2430  137.4306  163.5483 C.ar    1  UNL1        0.0367
      4 C         140.8005  138.2783  162.3927 C.ar    1  UNL1        0.1385
      5 C         140.3517  139.6903  162.6268 C.ar    1  UNL1        0.0367
      6 C         140.3456  140.2545  164.0165 C.ar    1  UNL1        0.0023
      7 C         138.4457  138.9145  166.9806 C.3     1  UNL1        0.0300
      8 C         139.6107  139.7250  167.4662 C.3     1  UNL1        0.1779
      9 C         140.7820  139.9712  166.5620 C.3     1  UNL1        0.2102
     10 O         141.9470  140.7817  167.0476 O.3     1  UNL1       -0.4717
     11 C         141.9408  141.3460  168.4374 C.ar    1  UNL1        0.1559
     12 C         143.1058  142.1565  168.9229 C.ar    1  UNL1        0.0382
     13 C         143.0996  142.7208  170.3127 C.ar    1  UNL1        0.0032
     14 C         141.9284  142.4746  171.2169 C.ar    1  UNL1        0.0015
     15 C         140.7634  141.6642  170.7314 C.ar    1  UNL1        0.0214
     16 C         140.7696  141.0999  169.3416 C.ar    1  UNL1        0.1395
     17 S         139.6045  140.2893  168.8560 S.O2    1  UNL1        0.0137
     18 O         139.1373  140.6110  170.2446 O.2     1  UNL1       -0.1685
     19 O         138.2772  139.5905  168.8527 O.2     1  UNL1       -0.1685
     20 O         140.8066  137.7139  161.0028 O.3     1  UNL1       -0.4754
     21 C         141.8917  138.0994  160.0416 C.3     1  UNL1        0.2068
     22 C         143.3135  138.1869  160.5115 C.3     1  UNL1        0.0646
     23 C         143.9296  139.5254  160.7923 C.3     1  UNL1        0.0759
     24 N         144.0161  140.0303  162.2021 N.3     1  UNL1       -0.2726
     25 C         143.6919  141.4208  162.6621 C.3     1  UNL1        0.0721
     26 C         143.9174  141.4833  164.1437 C.3     1  UNL1        0.0188
     27 C         144.3809  140.1314  164.5994 C.3     1  UNL1        0.0188
     28 C         144.4419  139.2335  163.3994 C.3     1  UNL1        0.0721
@<TRIPOS>BOND
     1     8     7    1
     2     8     9    1
     3     9     1    1
     4     1     2   ar
     5     2     3   ar
     6     3     4   ar
     7     4    20    1
     8    20    21    1
     9    21    22    1
    10    22    23    1
    11    23    24    1
    12    24    25    1
    13    25    26    1
    14    26    27    1
    15    27    28    1
    16     4     5   ar
    17     5     6   ar
    18     9    10    1
    19    10    11    1
    20    11    12   ar
    21    12    13   ar
    22    13    14   ar
    23    14    15   ar
    24    15    16   ar
    25    16    17    1
    26    17    18    2
    27    17    19    2
    28    17     8    1
    29     6     1   ar
    30    16    11   ar
    31    28    24    1
@<TRIPOS>MOLECULE
*****
 28 31 0 0 0
SMALL
GASTEIGER

@<TRIPOS>ATOM
      1 C         141.9428  142.0096  164.5970 C.ar    1  UNL1        0.0191
      2 C         140.9413  141.4815  163.6132 C.ar    1  UNL1        0.0023
      3 C         140.9727  141.9473  162.1877 C.ar    1  UNL1        0.0367
      4 C         142.0057  142.9412  161.7461 C.ar    1  UNL1        0.1385
      5 C         143.0072  143.4694  162.7299 C.ar    1  UNL1        0.0367
      6 C         142.9758  143.0036  164.1554 C.ar    1  UNL1        0.0023
      7 C         143.3569  139.4825  165.3807 C.3     1  UNL1        0.0300
      8 C         142.6184  140.2803  166.4144 C.3     1  UNL1        0.1779
      9 C         141.9114  141.5438  166.0226 C.3     1  UNL1        0.2102
     10 O         141.1730  142.3415  167.0561 O.3     1  UNL1       -0.4717
     11 C         141.1416  141.8757  168.4817 C.ar    1  UNL1        0.1559
     12 C         140.4032  142.6734  169.5153 C.ar    1  UNL1        0.0382
     13 C         140.3718  142.2076  170.9407 C.ar    1  UNL1        0.0032
     14 C         141.0788  140.9441  171.3326 C.ar    1  UNL1        0.0015
     15 C         141.8172  140.1463  170.2990 C.ar    1  UNL1        0.0214
     16 C         141.8486  140.6122  168.8736 C.ar    1  UNL1        0.1395
     17 S         142.5870  139.8144  167.8399 S.O2    1  UNL1        0.0137
     18 O         142.8430  138.9697  169.0527 O.2     1  UNL1       -0.1685
     19 O         143.4144  138.7233  167.2275 O.2     1  UNL1       -0.1685
     20 O         142.0371  143.4071  160.3205 O.3     1  UNL1       -0.4754
     21 C         141.5052  144.7631  159.9627 C.3     1  UNL1        0.2068
     22 C         140.1308  145.1702  160.4047 C.3     1  UNL1        0.0646
     23 C         139.9420  145.8711  161.7174 C.3     1  UNL1        0.0759
     24 N         139.3312  145.1408  162.8765 N.3     1  UNL1       -0.2726
     25 C         139.8819  145.0819  164.2705 C.3     1  UNL1        0.0721
     26 C         138.9536  144.2459  165.1007 C.3     1  UNL1        0.0188
     27 C         137.8291  143.7880  164.2197 C.3     1  UNL1        0.0188
     28 C         138.0626  144.3411  162.8451 C.3     1  UNL1        0.0721
@<TRIPOS>BOND
     1     8     7    1
     2     8     9    1
     3     9     1    1
     4     1     2   ar
     5     2     3   ar
     6     3     4   ar
     7     4    20    1
     8    20    21    1
     9    21    22    1
    10    22    23    1
    11    23    24    1
    12    24    25    1
    13    25    26    1
    14    26    27    1
    15    27    28    1
    16     4     5   ar
    17     5     6   ar
    18     9    10    1
    19    10    11    1
    20    11    12   ar
    21    12    13   ar
    22    13    14   ar
    23    14    15   ar
    24    15    16   ar
    25    16    17    1
    26    17    18    2
    27    17    19    2
    28    17     8    1
    29     6     1   ar
    30    16    11   ar
    31    28    24    1
@<TRIPOS>MOLECULE
*****
 28 31 0 0 0
SMALL
GASTEIGER

@<TRIPOS>ATOM
      1 C         139.6391  141.9039  164.4164 C.ar    1  UNL1        0.0191
      2 C         138.5495  142.9229  164.2610 C.ar    1  UNL1        0.0023
      3 C         138.0596  143.2944  162.8928 C.ar    1  UNL1        0.0367
      4 C         138.6593  142.6468  161.6800 C.ar    1  UNL1        0.1385
      5 C         139.7490  141.6277  161.8354 C.ar    1  UNL1        0.0367
      6 C         140.2388  141.2563  163.2036 C.ar    1  UNL1        0.0023
      7 C         138.1490  139.8701  166.0422 C.3     1  UNL1        0.0300
      8 C         139.3840  140.5155  166.5976 C.3     1  UNL1        0.1779
      9 C         140.1290  141.5324  165.7847 C.3     1  UNL1        0.2102
     10 O         141.3640  142.1778  166.3399 O.3     1  UNL1       -0.4717
     11 C         141.8539  141.8063  167.7082 C.ar    1  UNL1        0.1559
     12 C         143.0888  142.4516  168.2634 C.ar    1  UNL1        0.0382
     13 C         143.5787  142.0801  169.6316 C.ar    1  UNL1        0.0032
     14 C         142.8337  141.0632  170.4445 C.ar    1  UNL1        0.0015
     15 C         141.5987  140.4179  169.8893 C.ar    1  UNL1        0.0214
     16 C         141.1089  140.7894  168.5211 C.ar    1  UNL1        0.1395
     17 S         139.8739  140.1440  167.9657 S.O2    1  UNL1        0.0137
     18 O         139.9432  139.4666  169.3023 O.2     1  UNL1       -0.1685
     19 O         138.6630  139.2633  167.8746 O.2     1  UNL1       -0.1685
     20 O         138.1694  143.0183  160.3118 O.3     1  UNL1       -0.4754
     21 C         139.0895  142.9138  159.1317 C.3     1  UNL1        0.2068
     22 C         140.1074  143.9857  158.8772 C.3     1  UNL1        0.0646
     23 C         140.2026  145.1641  159.8005 C.3     1  UNL1        0.0759
     24 N         140.9472  145.0430  161.0969 N.3     1  UNL1       -0.2726
     25 C         140.5996  145.7354  162.3814 C.3     1  UNL1        0.0721
     26 C         141.6077  145.3285  163.4149 C.3     1  UNL1        0.0188
     27 C         142.5783  144.3845  162.7691 C.3     1  UNL1        0.0188
     28 C         142.1701  144.2081  161.3366 C.3     1  UNL1        0.0721
@<TRIPOS>BOND
     1     8     7    1
     2     8     9    1
     3     9     1    1
     4     1     2   ar
     5     2     3   ar
     6     3     4   ar
     7     4    20    1
     8    20    21    1
     9    21    22    1
    10    22    23    1
    11    23    24    1
    12    24    25    1
    13    25    26    1
    14    26    27    1
    15    27    28    1
    16     4     5   ar
    17     5     6   ar
    18     9    10    1
    19    10    11    1
    20    11    12   ar
    21    12    13   ar
    22    13    14   ar
    23    14    15   ar
    24    15    16   ar
    25    16    17    1
    26    17    18    2
    27    17    19    2
    28    17     8    1
    29     6     1   ar
    30    16    11   ar
    31    28    24    1
@<TRIPOS>MOLECULE
*****
 28 31 0 0 0
SMALL
GASTEIGER

@<TRIPOS>ATOM
      1 C         142.8637  140.7010  164.8616 C.ar    1  UNL1        0.0191
      2 C         141.8685  140.2587  163.8301 C.ar    1  UNL1        0.0023
      3 C         142.2603  140.2084  162.3831 C.ar    1  UNL1        0.0367
      4 C         143.6472  140.6004  161.9675 C.ar    1  UNL1        0.1385
      5 C         144.6424  141.0428  162.9989 C.ar    1  UNL1        0.0367
      6 C         144.2506  141.0931  164.4460 C.ar    1  UNL1        0.0023
      7 C         143.6134  138.4500  166.6976 C.3     1  UNL1        0.0300
      8 C         142.8468  139.6258  167.2267 C.3     1  UNL1        0.1779
      9 C         142.4719  140.7513  166.3087 C.3     1  UNL1        0.2102
     10 O         141.7053  141.9270  166.8377 O.3     1  UNL1       -0.4717
     11 C         141.3136  141.9773  168.2848 C.ar    1  UNL1        0.1559
     12 C         140.5470  143.1531  168.8139 C.ar    1  UNL1        0.0382
     13 C         140.1553  143.2033  170.2609 C.ar    1  UNL1        0.0032
     14 C         140.5302  142.0778  171.1789 C.ar    1  UNL1        0.0015
     15 C         141.2968  140.9021  170.6499 C.ar    1  UNL1        0.0214
     16 C         141.6885  140.8518  169.2029 C.ar    1  UNL1        0.1395
     17 S         142.4551  139.6761  168.6737 S.O2    1  UNL1        0.0137
     18 O         142.3124  139.2689  170.1104 O.2     1  UNL1       -0.1685
     19 O         143.1722  138.3589  168.6436 O.2     1  UNL1       -0.1685
     20 O         144.0389  140.5501  160.5204 O.3     1  UNL1       -0.4754
     21 C         143.9114  141.7763  159.6658 C.3     1  UNL1        0.2068
     22 C         142.5781  142.4450  159.5078 C.3     1  UNL1        0.0646
     23 C         142.3434  143.8006  160.1056 C.3     1  UNL1        0.0759
     24 N         142.2499  143.9578  161.5943 N.3     1  UNL1       -0.2726
     25 C         143.3597  144.3892  162.5067 C.3     1  UNL1        0.0721
     26 C         142.8260  144.4093  163.9084 C.3     1  UNL1        0.0188
     27 C         141.3864  143.9904  163.8623 C.3     1  UNL1        0.0188
     28 C         141.0304  143.7114  162.4321 C.3     1  UNL1        0.0721
@<TRIPOS>BOND
     1     8     7    1
     2     8     9    1
     3     9     1    1
     4     1     2   ar
     5     2     3   ar
     6     3     4   ar
     7     4    20    1
     8    20    21    1
     9    21    22    1
    10    22    23    1
    11    23    24    1
    12    24    25    1
    13    25    26    1
    14    26    27    1
    15    27    28    1
    16     4     5   ar
    17     5     6   ar
    18     9    10    1
    19    10    11    1
    20    11    12   ar
    21    12    13   ar
    22    13    14   ar
    23    14    15   ar
    24    15    16   ar
    25    16    17    1
    26    17    18    2
    27    17    19    2
    28    17     8    1
    29     6     1   ar
    30    16    11   ar
    31    28    24    1
@<TRIPOS>MOLECULE
*****
 28 31 0 0 0
SMALL
GASTEIGER

@<TRIPOS>ATOM
      1 C         141.5205  140.4761  164.2996 C.ar    1  UNL1        0.0191
      2 C         140.8498  141.3549  163.2858 C.ar    1  UNL1        0.0023
      3 C         141.2059  141.2317  161.8339 C.ar    1  UNL1        0.0367
      4 C         142.2326  140.2298  161.3959 C.ar    1  UNL1        0.1385
      5 C         142.9033  139.3510  162.4097 C.ar    1  UNL1        0.0367
      6 C         142.5473  139.4742  163.8616 C.ar    1  UNL1        0.0023
      7 C         139.1239  139.0338  165.3839 C.3     1  UNL1        0.0300
      8 C         139.9662  139.8781  166.2937 C.3     1  UNL1        0.1779
      9 C         141.1645  140.5993  165.7516 C.3     1  UNL1        0.2102
     10 O         142.0068  141.4436  166.6613 O.3     1  UNL1       -0.4717
     11 C         141.6508  141.5667  168.1133 C.ar    1  UNL1        0.1559
     12 C         142.4930  142.4110  169.0231 C.ar    1  UNL1        0.0382
     13 C         142.1370  142.5341  170.4750 C.ar    1  UNL1        0.0032
     14 C         140.9387  141.8129  171.0171 C.ar    1  UNL1        0.0015
     15 C         140.0964  140.9687  170.1074 C.ar    1  UNL1        0.0214
     16 C         140.4524  140.8455  168.6555 C.ar    1  UNL1        0.1395
     17 S         139.6101  140.0012  167.7456 S.O2    1  UNL1        0.0137
     18 O         138.8726  139.8078  169.0374 O.2     1  UNL1       -0.1685
     19 O         138.5117  139.0897  167.2845 O.2     1  UNL1       -0.1685
     20 O         142.5886  140.1066  159.9439 O.3     1  UNL1       -0.4754
     21 C         143.5821  141.0497  159.3327 C.3     1  UNL1        0.2068
     22 C         143.7637  142.4234  159.9070 C.3     1  UNL1        0.0646
     23 C         144.8968  142.6979  160.8509 C.3     1  UNL1        0.0759
     24 N         144.6120  143.0979  162.2682 N.3     1  UNL1       -0.2726
     25 C         143.9991  144.3928  162.7127 C.3     1  UNL1        0.0721
     26 C         143.8985  144.3685  164.2092 C.3     1  UNL1        0.0188
     27 C         144.4493  143.0585  164.6895 C.3     1  UNL1        0.0188
     28 C         144.8903  142.2733  163.4899 C.3     1  UNL1        0.0721
@<TRIPOS>BOND
     1     8     7    1
     2     8     9    1
     3     9     1    1
     4     1     2   ar
     5     2     3   ar
     6     3     4   ar
     7     4    20    1
     8    20    21    1
     9    21    22    1
    10    22    23    1
    11    23    24    1
    12    24    25    1
    13    25    26    1
    14    26    27    1
    15    27    28    1
    16     4     5   ar
    17     5     6   ar
    18     9    10    1
    19    10    11    1
    20    11    12   ar
    21    12    13   ar
    22    13    14   ar
    23    14    15   ar
    24    15    16   ar
    25    16    17    1
    26    17    18    2
    27    17    19    2
    28    17     8    1
    29     6     1   ar
    30    16    11   ar
    31    28    24    1
@<TRIPOS>MOLECULE
*****
 28 31 0 0 0
SMALL
GASTEIGER

@<TRIPOS>ATOM
      1 C         140.9561  141.8431  164.0273 C.ar    1  UNL1        0.0191
      2 C         141.6100  140.9022  163.0594 C.ar    1  UNL1        0.0023
      3 C         141.2800  140.9804  161.5983 C.ar    1  UNL1        0.0367
      4 C         140.2961  141.9995  161.1051 C.ar    1  UNL1        0.1385
      5 C         139.6422  142.9405  162.0730 C.ar    1  UNL1        0.0367
      6 C         139.9722  142.8623  163.5342 C.ar    1  UNL1        0.0023
      7 C         143.4748  143.0994  165.0655 C.3     1  UNL1        0.0300
      8 C         142.5455  142.3931  166.0077 C.3     1  UNL1        0.1779
      9 C         141.2861  141.7650  165.4886 C.3     1  UNL1        0.2102
     10 O         140.3568  141.0588  166.4306 O.3     1  UNL1       -0.4717
     11 C         140.6868  140.9806  167.8918 C.ar    1  UNL1        0.1559
     12 C         139.7574  140.2744  168.8339 C.ar    1  UNL1        0.0382
     13 C         140.0874  140.1962  170.2950 C.ar    1  UNL1        0.0032
     14 C         141.3468  140.8244  170.8141 C.ar    1  UNL1        0.0015
     15 C         142.2761  141.5306  169.8720 C.ar    1  UNL1        0.0214
     16 C         141.9461  141.6087  168.4109 C.ar    1  UNL1        0.1395
     17 S         142.8755  142.3150  167.4688 S.O2    1  UNL1        0.0137
     18 O         143.6178  142.5051  168.7583 O.2     1  UNL1       -0.1685
     19 O         144.0627  143.0873  166.9745 O.2     1  UNL1       -0.1685
     20 O         139.9661  142.0777  159.6439 O.3     1  UNL1       -0.4754
     21 C         138.6954  141.4698  159.1284 C.3     1  UNL1        0.2068
     22 C         138.3204  140.0712  159.5199 C.3     1  UNL1        0.0646
     23 C         137.4982  139.8320  160.7515 C.3     1  UNL1        0.0759
     24 N         138.1265  139.2112  161.9638 N.3     1  UNL1       -0.2726
     25 C         139.0128  138.0010  161.9757 C.3     1  UNL1        0.0721
     26 C         139.4129  137.7334  163.3963 C.3     1  UNL1        0.0188
     27 C         138.7740  138.7783  164.2625 C.3     1  UNL1        0.0188
     28 C         137.9790  139.6915  163.3771 C.3     1  UNL1        0.0721
@<TRIPOS>BOND
     1     8     7    1
     2     8     9    1
     3     9     1    1
     4     1     2   ar
     5     2     3   ar
     6     3     4   ar
     7     4    20    1
     8    20    21    1
     9    21    22    1
    10    22    23    1
    11    23    24    1
    12    24    25    1
    13    25    26    1
    14    26    27    1
    15    27    28    1
    16     4     5   ar
    17     5     6   ar
    18     9    10    1
    19    10    11    1
    20    11    12   ar
    21    12    13   ar
    22    13    14   ar
    23    14    15   ar
    24    15    16   ar
    25    16    17    1
    26    17    18    2
    27    17    19    2
    28    17     8    1
    29     6     1   ar
    30    16    11   ar
    31    28    24    1
@<TRIPOS>MOLECULE
*****
 28 31 0 0 0
SMALL
GASTEIGER

@<TRIPOS>ATOM
      1 C         141.1262  140.5559  164.4509 C.ar    1  UNL1        0.0191
      2 C         141.9680  141.3952  163.5361 C.ar    1  UNL1        0.0023
      3 C         141.7371  141.3524  162.0547 C.ar    1  UNL1        0.0367
      4 C         140.6645  140.4702  161.4879 C.ar    1  UNL1        0.1385
      5 C         139.8227  139.6308  162.4027 C.ar    1  UNL1        0.0367
      6 C         140.0536  139.6737  163.8842 C.ar    1  UNL1        0.0023
      7 C         142.9928  138.5899  165.7356 C.3     1  UNL1        0.0300
      8 C         142.2903  139.6157  166.5748 C.3     1  UNL1        0.1779
      9 C         141.3570  140.5987  165.9325 C.3     1  UNL1        0.2102
     10 O         140.6545  141.6245  166.7716 O.3     1  UNL1       -0.4717
     11 C         140.8853  141.6673  168.2532 C.ar    1  UNL1        0.1559
     12 C         140.1828  142.6931  169.0923 C.ar    1  UNL1        0.0382
     13 C         140.4136  142.7359  170.5738 C.ar    1  UNL1        0.0032
     14 C         141.3470  141.7529  171.2161 C.ar    1  UNL1        0.0015
     15 C         142.0495  140.7271  170.3770 C.ar    1  UNL1        0.0214
     16 C         141.8186  140.6843  168.8955 C.ar    1  UNL1        0.1395
     17 S         142.5211  139.6585  168.0563 S.O2    1  UNL1        0.0137
     18 O         143.0611  139.3020  169.4096 O.2     1  UNL1       -0.1685
     19 O         143.4112  138.5089  167.6871 O.2     1  UNL1       -0.1685
     20 O         140.4337  140.4273  160.0064 O.3     1  UNL1       -0.4754
     21 C         139.0449  140.5745  159.4591 C.3     1  UNL1        0.2068
     22 C         138.4969  141.9385  159.1609 C.3     1  UNL1        0.0646
     23 C         139.1664  143.1559  159.7266 C.3     1  UNL1        0.0759
     24 N         138.9183  143.5545  161.1512 N.3     1  UNL1       -0.2726
     25 C         137.9096  142.9400  162.0758 C.3     1  UNL1        0.0721
     26 C         138.0032  143.6433  163.3974 C.3     1  UNL1        0.0188
     27 C         139.0697  144.6926  163.2895 C.3     1  UNL1        0.0188
     28 C         139.6353  144.6377  161.9013 C.3     1  UNL1        0.0721
@<TRIPOS>BOND
     1     8     7    1
     2     8     9    1
     3     9     1    1
     4     1     2   ar
     5     2     3   ar
     6     3     4   ar
     7     4    20    1
     8    20    21    1
     9    21    22    1
    10    22    23    1
    11    23    24    1
    12    24    25    1
    13    25    26    1
    14    26    27    1
    15    27    28    1
    16     4     5   ar
    17     5     6   ar
    18     9    10    1
    19    10    11    1
    20    11    12   ar
    21    12    13   ar
    22    13    14   ar
    23    14    15   ar
    24    15    16   ar
    25    16    17    1
    26    17    18    2
    27    17    19    2
    28    17     8    1
    29     6     1   ar
    30    16    11   ar
    31    28    24    1
@<TRIPOS>MOLECULE
*****
 28 31 0 0 0
SMALL
GASTEIGER

@<TRIPOS>ATOM
      1 C         142.3298  141.3824  164.4983 C.ar    1  UNL1        0.0191
      2 C         141.1312  141.3641  163.5968 C.ar    1  UNL1        0.0023
      3 C         141.3039  141.5287  162.1159 C.ar    1  UNL1        0.0367
      4 C         142.6754  141.7115  161.5365 C.ar    1  UNL1        0.1385
      5 C         143.8741  141.7298  162.4380 C.ar    1  UNL1        0.0367
      6 C         143.7013  141.5652  163.9189 C.ar    1  UNL1        0.0023
      7 C         143.4622  138.9734  165.8820 C.3     1  UNL1        0.0300
      8 C         142.7233  140.0133  166.6711 C.3     1  UNL1        0.1779
      9 C         142.1571  141.2178  165.9792 C.3     1  UNL1        0.2102
     10 O         141.4182  142.2577  166.7683 O.3     1  UNL1       -0.4717
     11 C         141.2455  142.0931  168.2492 C.ar    1  UNL1        0.1559
     12 C         140.5066  143.1330  169.0383 C.ar    1  UNL1        0.0382
     13 C         140.3339  142.9684  170.5191 C.ar    1  UNL1        0.0032
     14 C         140.9001  141.7639  171.2110 C.ar    1  UNL1        0.0015
     15 C         141.6390  140.7241  170.4219 C.ar    1  UNL1        0.0214
     16 C         141.8117  140.8887  168.9411 C.ar    1  UNL1        0.1395
     17 S         142.5506  139.8487  168.1519 S.O2    1  UNL1        0.0137
     18 O         142.6460  139.2509  169.5244 O.2     1  UNL1       -0.1685
     19 O         143.3227  138.6012  167.8395 O.2     1  UNL1       -0.1685
     20 O         142.8481  141.8761  160.0556 O.3     1  UNL1       -0.4754
     21 C         142.7140  140.6891  159.1484 C.3     1  UNL1        0.2068
     22 C         143.4559  139.4223  159.4562 C.3     1  UNL1        0.0646
     23 C         142.6982  138.1572  159.7311 C.3     1  UNL1        0.0759
     24 N         141.8446  138.0461  160.9595 N.3     1  UNL1       -0.2726
     25 C         140.3482  138.1401  161.0048 C.3     1  UNL1        0.0721
     26 C         139.9163  137.9735  162.4315 C.3     1  UNL1        0.0188
     27 C         141.1458  137.7766  163.2680 C.3     1  UNL1        0.0188
     28 C         142.3375  137.8215  162.3582 C.3     1  UNL1        0.0721
@<TRIPOS>BOND
     1     8     7    1
     2     8     9    1
     3     9     1    1
     4     1     2   ar
     5     2     3   ar
     6     3     4   ar
     7     4    20    1
     8    20    21    1
     9    21    22    1
    10    22    23    1
    11    23    24    1
    12    24    25    1
    13    25    26    1
    14    26    27    1
    15    27    28    1
    16     4     5   ar
    17     5     6   ar
    18     9    10    1
    19    10    11    1
    20    11    12   ar
    21    12    13   ar
    22    13    14   ar
    23    14    15   ar
    24    15    16   ar
    25    16    17    1
    26    17    18    2
    27    17    19    2
    28    17     8    1
    29     6     1   ar
    30    16    11   ar
    31    28    24    1
@<TRIPOS>MOLECULE
*****
 28 31 0 0 0
SMALL
GASTEIGER

@<TRIPOS>ATOM
      1 C         139.7230  140.3653  165.0210 C.ar    1  UNL1        0.0191
      2 C         138.7471  141.2763  164.3371 C.ar    1  UNL1        0.0023
      3 C         137.9979  140.8007  163.1278 C.ar    1  UNL1        0.0367
      4 C         138.2247  139.4142  162.6023 C.ar    1  UNL1        0.1385
      5 C         139.2006  138.5032  163.2862 C.ar    1  UNL1        0.0367
      6 C         139.9497  138.9788  164.4956 C.ar    1  UNL1        0.0023
      7 C         142.3276  141.8182  164.6966 C.3     1  UNL1        0.0300
      8 C         141.7745  141.5673  166.0682 C.3     1  UNL1        0.1779
      9 C         140.4722  140.8409  166.2304 C.3     1  UNL1        0.2102
     10 O         139.9191  140.5900  167.6019 O.3     1  UNL1       -0.4717
     11 C         140.6683  141.0655  168.8114 C.ar    1  UNL1        0.1559
     12 C         140.1152  140.8147  170.1829 C.ar    1  UNL1        0.0382
     13 C         140.8644  141.2902  171.3922 C.ar    1  UNL1        0.0032
     14 C         142.1667  142.0166  171.2300 C.ar    1  UNL1        0.0015
     15 C         142.7198  142.2675  169.8585 C.ar    1  UNL1        0.0214
     16 C         141.9706  141.7920  168.6492 C.ar    1  UNL1        0.1395
     17 S         142.5237  142.0429  167.2776 S.O2    1  UNL1        0.0137
     18 O         143.5941  142.6827  168.1111 O.2     1  UNL1       -0.1685
     19 O         143.4485  142.5160  166.1955 O.2     1  UNL1       -0.1685
     20 O         137.4755  138.9386  161.3929 O.3     1  UNL1       -0.4754
     21 C         137.3176  139.8414  160.2055 C.3     1  UNL1        0.2068
     22 C         138.4233  139.9561  159.1984 C.3     1  UNL1        0.0646
     23 C         139.6979  140.6592  159.5607 C.3     1  UNL1        0.0759
     24 N         140.7779  139.9225  160.2960 N.3     1  UNL1       -0.2726
     25 C         141.6921  140.5033  161.3338 C.3     1  UNL1        0.0721
     26 C         142.6126  139.4154  161.8018 C.3     1  UNL1        0.0188
     27 C         142.2673  138.1621  161.0533 C.3     1  UNL1        0.0188
     28 C         141.1334  138.4756  160.1226 C.3     1  UNL1        0.0721
@<TRIPOS>BOND
     1     8     7    1
     2     8     9    1
     3     9     1    1
     4     1     2   ar
     5     2     3   ar
     6     3     4   ar
     7     4    20    1
     8    20    21    1
     9    21    22    1
    10    22    23    1
    11    23    24    1
    12    24    25    1
    13    25    26    1
    14    26    27    1
    15    27    28    1
    16     4     5   ar
    17     5     6   ar
    18     9    10    1
    19    10    11    1
    20    11    12   ar
    21    12    13   ar
    22    13    14   ar
    23    14    15   ar
    24    15    16   ar
    25    16    17    1
    26    17    18    2
    27    17    19    2
    28    17     8    1
    29     6     1   ar
    30    16    11   ar
    31    28    24    1
