@<TRIPOS>MOLECULE
*****
 28 31 0 0 0
SMALL
GASTEIGER

@<TRIPOS>ATOM
      1 C         137.2981  138.0947  167.2134 C.3     1  UNL1        0.0420
      2 C         138.2749  139.1353  166.7516 C.3     1  UNL1        0.1912
      3 O         138.3801  139.4707  165.2934 O.3     1  UNL1       -0.3500
      4 C         139.3568  140.5113  164.8317 C.3     1  UNL1        0.1145
      5 C         140.3335  141.5519  164.3700 C.3     1  UNL1        0.0463
      6 C         140.4387  141.8872  162.9118 C.3     1  UNL1        0.0746
      7 N         139.5672  141.1820  161.9152 N.3     1  UNL1       -0.2722
      8 C         138.5905  140.1414  162.3769 C.3     1  UNL1        0.0746
      9 C         138.4853  139.8060  163.8351 C.3     1  UNL1        0.0463
     10 C         140.2283  141.2165  165.8282 C.3     1  UNL1        0.1254
     11 N         140.1231  140.8812  167.2865 N.am    1  UNL1       -0.2535
     12 C         139.1464  139.8406  167.7482 C.2     1  UNL1        0.2566
     13 O         139.0412  139.5052  169.2064 O.2     1  UNL1       -0.2719
     14 C         140.9946  141.5864  168.2830 C.ar    1  UNL1        0.0645
     15 C         140.5228  142.8572  168.9252 C.ar    1  UNL1        0.0158
     16 C         141.3944  143.5625  169.9217 C.ar    1  UNL1        0.0013
     17 C         142.7377  142.9969  170.2761 C.ar    1  UNL1        0.0009
     18 C         143.2095  141.7260  169.6339 C.ar    1  UNL1        0.0127
     19 C         142.3380  141.0208  168.6374 C.ar    1  UNL1        0.0713
     20 CL        142.8098  139.7500  167.9952 Cl      1  UNL1       -0.0809
     21 C         139.6724  141.5173  160.4569 C.3     1  UNL1        0.0768
     22 C         140.7109  140.8479  159.6064 C.3     1  UNL1        0.0437
     23 C         141.7475  139.9689  160.2412 C.ar    1  UNL1       -0.0208
     24 C         141.4628  138.5128  160.4620 C.ar    1  UNL1       -0.0042
     25 C         142.4993  137.6338  161.0968 C.ar    1  UNL1       -0.0003
     26 C         143.8205  138.2109  161.5107 C.ar    1  UNL1       -0.0000
     27 C         144.1052  139.6670  161.2899 C.ar    1  UNL1       -0.0003
     28 C         143.0687  140.5460  160.6552 C.ar    1  UNL1       -0.0042
@<TRIPOS>BOND
     1     1     2    1
     2     2     3    1
     3     3     4    1
     4     4     5    1
     5     5     6    1
     6     6     7    1
     7     7    21    1
     8    21    22    1
     9    22    23    1
    10    23    24   ar
    11    24    25   ar
    12    25    26   ar
    13    26    27   ar
    14    27    28   ar
    15     7     8    1
    16     8     9    1
    17     4    10    1
    18    10    11    1
    19    11    14    1
    20    14    15   ar
    21    15    16   ar
    22    16    17   ar
    23    17    18   ar
    24    18    19   ar
    25    19    20    1
    26    11    12   am
    27    12    13    2
    28    12     2    1
    29     9     4    1
    30    19    14   ar
    31    28    23   ar
@<TRIPOS>MOLECULE
*****
 28 31 0 0 0
SMALL
GASTEIGER

@<TRIPOS>ATOM
      1 C         137.4295  138.1441  167.0287 C.3     1  UNL1        0.0420
      2 C         138.2555  139.3327  166.6348 C.3     1  UNL1        0.1912
      3 O         138.1727  139.8740  165.2384 O.3     1  UNL1       -0.3500
      4 C         138.9987  141.0626  164.8446 C.3     1  UNL1        0.1145
      5 C         139.8246  142.2512  164.4508 C.3     1  UNL1        0.0463
      6 C         139.7418  142.7925  163.0544 C.3     1  UNL1        0.0746
      7 N         138.8331  142.1453  162.0517 N.3     1  UNL1       -0.2722
      8 C         138.0071  140.9567  162.4455 C.3     1  UNL1        0.0746
      9 C         138.0899  140.4154  163.8419 C.3     1  UNL1        0.0463
     10 C         139.9074  141.7098  165.8472 C.3     1  UNL1        0.1254
     11 N         139.9902  141.1684  167.2437 N.am    1  UNL1       -0.2535
     12 C         139.1642  139.9799  167.6375 C.2     1  UNL1        0.2566
     13 O         139.2470  139.4385  169.0340 O.2     1  UNL1       -0.2719
     14 C         140.8989  141.8157  168.2464 C.ar    1  UNL1        0.0645
     15 C         140.4394  143.0262  169.0035 C.ar    1  UNL1        0.0158
     16 C         141.3481  143.6735  170.0061 C.ar    1  UNL1        0.0013
     17 C         142.7164  143.1101  170.2516 C.ar    1  UNL1        0.0009
     18 C         143.1760  141.8994  169.4945 C.ar    1  UNL1        0.0127
     19 C         142.2673  141.2522  168.4919 C.ar    1  UNL1        0.0713
     20 CL        142.7268  140.0416  167.7348 Cl      1  UNL1       -0.0809
     21 C         138.7503  142.6867  160.6552 C.3     1  UNL1        0.0768
     22 C         139.9784  143.2308  159.9878 C.3     1  UNL1        0.0437
     23 C         139.8554  144.0138  158.7142 C.ar    1  UNL1       -0.0208
     24 C         140.3601  145.4248  158.6495 C.ar    1  UNL1       -0.0042
     25 C         140.2371  146.2076  157.3759 C.ar    1  UNL1       -0.0003
     26 C         139.6094  145.5794  156.1671 C.ar    1  UNL1       -0.0000
     27 C         139.1047  144.1684  156.2317 C.ar    1  UNL1       -0.0003
     28 C         139.2278  143.3856  157.5053 C.ar    1  UNL1       -0.0042
@<TRIPOS>BOND
     1     1     2    1
     2     2     3    1
     3     3     4    1
     4     4     5    1
     5     5     6    1
     6     6     7    1
     7     7    21    1
     8    21    22    1
     9    22    23    1
    10    23    24   ar
    11    24    25   ar
    12    25    26   ar
    13    26    27   ar
    14    27    28   ar
    15     7     8    1
    16     8     9    1
    17     4    10    1
    18    10    11    1
    19    11    14    1
    20    14    15   ar
    21    15    16   ar
    22    16    17   ar
    23    17    18   ar
    24    18    19   ar
    25    19    20    1
    26    11    12   am
    27    12    13    2
    28    12     2    1
    29     9     4    1
    30    19    14   ar
    31    28    23   ar
@<TRIPOS>MOLECULE
*****
 28 31 0 0 0
SMALL
GASTEIGER

@<TRIPOS>ATOM
      1 C         137.3052  138.0306  167.1444 C.3     1  UNL1        0.0420
      2 C         138.3927  138.9627  166.6987 C.3     1  UNL1        0.1912
      3 O         138.6967  139.1166  165.2380 O.3     1  UNL1       -0.3500
      4 C         139.7842  140.0488  164.7923 C.3     1  UNL1        0.1145
      5 C         140.8717  140.9808  164.3467 C.3     1  UNL1        0.0463
      6 C         141.1757  141.1347  162.8860 C.3     1  UNL1        0.0746
      7 N         140.3922  140.3565  161.8708 N.3     1  UNL1       -0.2722
      8 C         139.3048  139.4244  162.3164 C.3     1  UNL1        0.0746
      9 C         139.0008  139.2706  163.7771 C.3     1  UNL1        0.0463
     10 C         140.5677  140.8270  165.8075 C.3     1  UNL1        0.1254
     11 N         140.2636  140.6730  167.2683 N.am    1  UNL1       -0.2535
     12 C         139.1762  139.7409  167.7139 C.2     1  UNL1        0.2566
     13 O         138.8721  139.5870  169.1747 O.2     1  UNL1       -0.2719
     14 C         141.0471  141.4512  168.2835 C.ar    1  UNL1        0.0645
     15 C         140.5457  142.7830  168.7578 C.ar    1  UNL1        0.0158
     16 C         141.3291  143.5612  169.7730 C.ar    1  UNL1        0.0013
     17 C         142.6140  143.0076  170.3139 C.ar    1  UNL1        0.0009
     18 C         143.1155  141.6758  169.8396 C.ar    1  UNL1        0.0127
     19 C         142.3321  140.8976  168.8244 C.ar    1  UNL1        0.0713
     20 CL        142.8335  139.5659  168.3501 Cl      1  UNL1       -0.0809
     21 C         140.6963  140.5105  160.4100 C.3     1  UNL1        0.0768
     22 C         141.8092  139.7201  159.7882 C.3     1  UNL1        0.0437
     23 C         141.5178  138.7709  158.6638 C.ar    1  UNL1       -0.0208
     24 C         140.1136  138.6127  158.1607 C.ar    1  UNL1       -0.0042
     25 C         139.8222  137.6636  157.0363 C.ar    1  UNL1       -0.0003
     26 C         140.9351  136.8726  156.4151 C.ar    1  UNL1       -0.0000
     27 C         142.3393  137.0307  156.9183 C.ar    1  UNL1       -0.0003
     28 C         142.6306  137.9799  158.0426 C.ar    1  UNL1       -0.0042
@<TRIPOS>BOND
     1     1     2    1
     2     2     3    1
     3     3     4    1
     4     4     5    1
     5     5     6    1
     6     6     7    1
     7     7    21    1
     8    21    22    1
     9    22    23    1
    10    23    24   ar
    11    24    25   ar
    12    25    26   ar
    13    26    27   ar
    14    27    28   ar
    15     7     8    1
    16     8     9    1
    17     4    10    1
    18    10    11    1
    19    11    14    1
    20    14    15   ar
    21    15    16   ar
    22    16    17   ar
    23    17    18   ar
    24    18    19   ar
    25    19    20    1
    26    11    12   am
    27    12    13    2
    28    12     2    1
    29     9     4    1
    30    19    14   ar
    31    28    23   ar
@<TRIPOS>MOLECULE
*****
 28 31 0 0 0
SMALL
GASTEIGER

@<TRIPOS>ATOM
      1 C         137.3738  138.1829  167.2081 C.3     1  UNL1        0.0420
      2 C         138.2320  139.3355  166.7774 C.3     1  UNL1        0.1912
      3 O         138.1588  139.8388  165.3663 O.3     1  UNL1       -0.3500
      4 C         139.0169  140.9913  164.9356 C.3     1  UNL1        0.1145
      5 C         139.8750  142.1438  164.5050 C.3     1  UNL1        0.0463
      6 C         139.8019  142.6471  163.0939 C.3     1  UNL1        0.0746
      7 N         138.8706  141.9979  162.1134 N.3     1  UNL1       -0.2722
      8 C         138.0126  140.8454  162.5440 C.3     1  UNL1        0.0746
      9 C         138.0857  140.3421  163.9551 C.3     1  UNL1        0.0463
     10 C         139.9481  141.6405  165.9161 C.3     1  UNL1        0.1254
     11 N         140.0212  141.1371  167.3273 N.am    1  UNL1       -0.2535
     12 C         139.1632  139.9846  167.7579 C.2     1  UNL1        0.2566
     13 O         139.2363  139.4813  169.1691 O.2     1  UNL1       -0.2719
     14 C         140.9525  141.7863  168.3078 C.ar    1  UNL1        0.0645
     15 C         140.5066  142.9924  169.0801 C.ar    1  UNL1        0.0158
     16 C         141.4378  143.6416  170.0606 C.ar    1  UNL1        0.0013
     17 C         142.8149  143.0846  170.2689 C.ar    1  UNL1        0.0009
     18 C         143.2608  141.8784  169.4966 C.ar    1  UNL1        0.0127
     19 C         142.3296  141.2293  168.5161 C.ar    1  UNL1        0.0713
     20 CL        142.7755  140.0232  167.7438 Cl      1  UNL1       -0.0809
     21 C         138.7975  142.5013  160.7022 C.3     1  UNL1        0.0768
     22 C         139.6406  143.6668  160.2771 C.3     1  UNL1        0.0437
     23 C         140.9558  143.4320  159.5951 C.ar    1  UNL1       -0.0208
     24 C         141.7713  142.2199  159.9355 C.ar    1  UNL1       -0.0042
     25 C         143.0865  141.9851  159.2536 C.ar    1  UNL1       -0.0003
     26 C         143.5862  142.9624  158.2312 C.ar    1  UNL1       -0.0000
     27 C         142.7708  144.1744  157.8908 C.ar    1  UNL1       -0.0003
     28 C         141.4556  144.4092  158.5727 C.ar    1  UNL1       -0.0042
@<TRIPOS>BOND
     1     1     2    1
     2     2     3    1
     3     3     4    1
     4     4     5    1
     5     5     6    1
     6     6     7    1
     7     7    21    1
     8    21    22    1
     9    22    23    1
    10    23    24   ar
    11    24    25   ar
    12    25    26   ar
    13    26    27   ar
    14    27    28   ar
    15     7     8    1
    16     8     9    1
    17     4    10    1
    18    10    11    1
    19    11    14    1
    20    14    15   ar
    21    15    16   ar
    22    16    17   ar
    23    17    18   ar
    24    18    19   ar
    25    19    20    1
    26    11    12   am
    27    12    13    2
    28    12     2    1
    29     9     4    1
    30    19    14   ar
    31    28    23   ar
@<TRIPOS>MOLECULE
*****
 28 31 0 0 0
SMALL
GASTEIGER

@<TRIPOS>ATOM
      1 C         138.0725  139.3827  165.2850 C.3     1  UNL1        0.0420
      2 C         138.8904  140.6362  165.3839 C.3     1  UNL1        0.1912
      3 O         138.9531  141.5844  164.2233 O.3     1  UNL1       -0.3500
      4 C         139.7710  142.8380  164.3222 C.3     1  UNL1        0.1145
      5 C         140.5889  144.0914  164.4212 C.3     1  UNL1        0.0463
      6 C         140.6516  145.0396  163.2606 C.3     1  UNL1        0.0746
      7 N         139.8964  144.7343  162.0011 N.3     1  UNL1       -0.2722
      8 C         139.0785  143.4808  161.9021 C.3     1  UNL1        0.0746
      9 C         139.0158  142.5327  163.0627 C.3     1  UNL1        0.0463
     10 C         140.5262  143.1432  165.5818 C.3     1  UNL1        0.1254
     11 N         140.4635  142.1950  166.7424 N.am    1  UNL1       -0.2535
     12 C         139.6456  140.9415  166.6434 C.2     1  UNL1        0.2566
     13 O         139.5829  139.9933  167.8041 O.2     1  UNL1       -0.2719
     14 C         141.2188  142.5003  168.0019 C.ar    1  UNL1        0.0645
     15 C         140.5734  143.3128  169.0851 C.ar    1  UNL1        0.0158
     16 C         141.3287  143.6181  170.3446 C.ar    1  UNL1        0.0013
     17 C         142.7292  143.1108  170.5210 C.ar    1  UNL1        0.0009
     18 C         143.3746  142.2982  169.4378 C.ar    1  UNL1        0.0127
     19 C         142.6194  141.9930  168.1783 C.ar    1  UNL1        0.0713
     20 CL        143.2647  141.1804  167.0951 Cl      1  UNL1       -0.0809
     21 C         139.9591  145.6825  160.8405 C.3     1  UNL1        0.0768
     22 C         140.8436  145.3760  159.6685 C.3     1  UNL1        0.0437
     23 C         140.2390  145.1130  158.3211 C.ar    1  UNL1       -0.0208
     24 C         139.6791  143.7586  158.0018 C.ar    1  UNL1       -0.0042
     25 C         139.0745  143.4956  156.6544 C.ar    1  UNL1       -0.0003
     26 C         139.0300  144.5870  155.6264 C.ar    1  UNL1       -0.0000
     27 C         139.5900  145.9414  155.9457 C.ar    1  UNL1       -0.0003
     28 C         140.1945  146.2044  157.2930 C.ar    1  UNL1       -0.0042
@<TRIPOS>BOND
     1     1     2    1
     2     2     3    1
     3     3     4    1
     4     4     5    1
     5     5     6    1
     6     6     7    1
     7     7    21    1
     8    21    22    1
     9    22    23    1
    10    23    24   ar
    11    24    25   ar
    12    25    26   ar
    13    26    27   ar
    14    27    28   ar
    15     7     8    1
    16     8     9    1
    17     4    10    1
    18    10    11    1
    19    11    14    1
    20    14    15   ar
    21    15    16   ar
    22    16    17   ar
    23    17    18   ar
    24    18    19   ar
    25    19    20    1
    26    11    12   am
    27    12    13    2
    28    12     2    1
    29     9     4    1
    30    19    14   ar
    31    28    23   ar
@<TRIPOS>MOLECULE
*****
 28 31 0 0 0
SMALL
GASTEIGER

@<TRIPOS>ATOM
      1 C         138.5317  144.9589  165.6270 C.3     1  UNL1        0.0420
      2 C         139.4044  144.1812  164.6870 C.3     1  UNL1        0.1912
      3 O         139.6580  144.6947  163.3006 O.3     1  UNL1       -0.3500
      4 C         140.5307  143.9169  162.3606 C.3     1  UNL1        0.1145
      5 C         141.4033  143.1392  161.4207 C.3     1  UNL1        0.0463
      6 C         141.6569  143.6527  160.0344 C.3     1  UNL1        0.0746
      7 N         141.0377  144.9439  159.5880 N.3     1  UNL1       -0.2722
      8 C         140.1650  145.7217  160.5279 C.3     1  UNL1        0.0746
      9 C         139.9115  145.2082  161.9142 C.3     1  UNL1        0.0463
     10 C         141.1498  142.6257  162.8071 C.3     1  UNL1        0.1254
     11 N         140.8963  142.1122  164.1935 N.am    1  UNL1       -0.2535
     12 C         140.0236  142.8899  165.1334 C.2     1  UNL1        0.2566
     13 O         139.7700  142.3764  166.5198 O.2     1  UNL1       -0.2719
     14 C         141.5154  140.8209  164.6399 C.ar    1  UNL1        0.0645
     15 C         140.8107  139.5223  164.3811 C.ar    1  UNL1        0.0158
     16 C         141.4299  138.2310  164.8275 C.ar    1  UNL1        0.0013
     17 C         142.7537  138.2384  165.5327 C.ar    1  UNL1        0.0009
     18 C         143.4585  139.5370  165.7916 C.ar    1  UNL1        0.0127
     19 C         142.8393  140.8283  165.3452 C.ar    1  UNL1        0.0713
     20 CL        143.5440  142.1269  165.6040 Cl      1  UNL1       -0.0809
     21 C         141.2913  145.4574  158.2015 C.3     1  UNL1        0.0768
     22 C         140.2376  145.3128  157.1438 C.3     1  UNL1        0.0437
     23 C         140.0466  146.3948  156.1225 C.ar    1  UNL1       -0.0208
     24 C         140.7969  146.3420  154.8247 C.ar    1  UNL1       -0.0042
     25 C         140.6058  147.4240  153.8035 C.ar    1  UNL1       -0.0003
     26 C         139.6645  148.5586  154.0801 C.ar    1  UNL1       -0.0000
     27 C         138.9143  148.6114  155.3779 C.ar    1  UNL1       -0.0003
     28 C         139.1053  147.5294  156.3991 C.ar    1  UNL1       -0.0042
@<TRIPOS>BOND
     1     1     2    1
     2     2     3    1
     3     3     4    1
     4     4     5    1
     5     5     6    1
     6     6     7    1
     7     7    21    1
     8    21    22    1
     9    22    23    1
    10    23    24   ar
    11    24    25   ar
    12    25    26   ar
    13    26    27   ar
    14    27    28   ar
    15     7     8    1
    16     8     9    1
    17     4    10    1
    18    10    11    1
    19    11    14    1
    20    14    15   ar
    21    15    16   ar
    22    16    17   ar
    23    17    18   ar
    24    18    19   ar
    25    19    20    1
    26    11    12   am
    27    12    13    2
    28    12     2    1
    29     9     4    1
    30    19    14   ar
    31    28    23   ar
@<TRIPOS>MOLECULE
*****
 28 31 0 0 0
SMALL
GASTEIGER

@<TRIPOS>ATOM
      1 C         138.6968  144.7436  165.2687 C.3     1  UNL1        0.0420
      2 C         139.2886  143.8951  164.1824 C.3     1  UNL1        0.1912
      3 O         139.5908  144.4963  162.8418 O.3     1  UNL1       -0.3500
      4 C         140.1825  143.6478  161.7555 C.3     1  UNL1        0.1145
      5 C         140.7743  142.7994  160.6693 C.3     1  UNL1        0.0463
      6 C         141.0765  143.4006  159.3287 C.3     1  UNL1        0.0746
      7 N         140.7870  144.8502  159.0744 N.3     1  UNL1       -0.2722
      8 C         140.1953  145.6987  160.1606 C.3     1  UNL1        0.0746
      9 C         139.8930  145.0975  161.5012 C.3     1  UNL1        0.0463
     10 C         140.4721  142.1982  162.0099 C.3     1  UNL1        0.1254
     11 N         140.1698  141.5970  163.3505 N.am    1  UNL1       -0.2535
     12 C         139.5781  142.4455  164.4368 C.2     1  UNL1        0.2566
     13 O         139.2758  141.8443  165.7774 O.2     1  UNL1       -0.2719
     14 C         140.4593  140.1474  163.6049 C.ar    1  UNL1        0.0645
     15 C         141.7786  139.7373  164.1891 C.ar    1  UNL1        0.0158
     16 C         142.0681  138.2876  164.4435 C.ar    1  UNL1        0.0013
     17 C         141.0383  137.2481  164.1136 C.ar    1  UNL1        0.0009
     18 C         139.7190  137.6581  163.5294 C.ar    1  UNL1        0.0127
     19 C         139.4295  139.1078  163.2750 C.ar    1  UNL1        0.0713
     20 CL        138.1102  139.5178  162.6908 Cl      1  UNL1       -0.0809
     21 C         141.0892  145.4514  157.7337 C.3     1  UNL1        0.0768
     22 C         139.9993  145.5954  156.7134 C.3     1  UNL1        0.0437
     23 C         139.6380  146.9533  156.1883 C.ar    1  UNL1       -0.0208
     24 C         138.8764  147.9136  157.0531 C.ar    1  UNL1       -0.0042
     25 C         138.5152  149.2714  156.5280 C.ar    1  UNL1       -0.0003
     26 C         138.9156  149.6690  155.1381 C.ar    1  UNL1       -0.0000
     27 C         139.6772  148.7087  154.2734 C.ar    1  UNL1       -0.0003
     28 C         140.0384  147.3509  154.7985 C.ar    1  UNL1       -0.0042
@<TRIPOS>BOND
     1     1     2    1
     2     2     3    1
     3     3     4    1
     4     4     5    1
     5     5     6    1
     6     6     7    1
     7     7    21    1
     8    21    22    1
     9    22    23    1
    10    23    24   ar
    11    24    25   ar
    12    25    26   ar
    13    26    27   ar
    14    27    28   ar
    15     7     8    1
    16     8     9    1
    17     4    10    1
    18    10    11    1
    19    11    14    1
    20    14    15   ar
    21    15    16   ar
    22    16    17   ar
    23    17    18   ar
    24    18    19   ar
    25    19    20    1
    26    11    12   am
    27    12    13    2
    28    12     2    1
    29     9     4    1
    30    19    14   ar
    31    28    23   ar
@<TRIPOS>MOLECULE
*****
 28 31 0 0 0
SMALL
GASTEIGER

@<TRIPOS>ATOM
      1 C         143.3043  138.3770  165.9025 C.3     1  UNL1        0.0420
      2 C         142.6243  139.0827  164.7669 C.3     1  UNL1        0.1912
      3 O         142.8439  138.6199  163.3571 O.3     1  UNL1       -0.3500
      4 C         142.1638  139.3256  162.2215 C.3     1  UNL1        0.1145
      5 C         141.4837  140.0313  161.0859 C.3     1  UNL1        0.0463
      6 C         141.7033  139.5685  159.6761 C.3     1  UNL1        0.0746
      7 N         142.6030  138.4000  159.4019 N.3     1  UNL1       -0.2722
      8 C         143.2830  137.6943  160.5374 C.3     1  UNL1        0.0746
      9 C         143.0634  138.1571  161.9472 C.3     1  UNL1        0.0463
     10 C         141.2641  140.4941  162.4957 C.3     1  UNL1        0.1254
     11 N         141.0445  140.9569  163.9056 N.am    1  UNL1       -0.2535
     12 C         141.7246  140.2512  165.0411 C.2     1  UNL1        0.2566
     13 O         141.5050  140.7140  166.4510 O.2     1  UNL1       -0.2719
     14 C         140.1449  142.1254  164.1799 C.ar    1  UNL1        0.0645
     15 C         140.7206  143.5063  164.2872 C.ar    1  UNL1        0.0158
     16 C         139.8210  144.6748  164.5614 C.ar    1  UNL1        0.0013
     17 C         138.3455  144.4624  164.7284 C.ar    1  UNL1        0.0009
     18 C         137.7697  143.0815  164.6211 C.ar    1  UNL1        0.0127
     19 C         138.6694  141.9130  164.3468 C.ar    1  UNL1        0.0713
     20 CL        138.0936  140.5321  164.2395 Cl      1  UNL1       -0.0809
     21 C         142.8226  137.9372  157.9920 C.3     1  UNL1        0.0768
     22 C         141.7209  137.2383  157.2519 C.3     1  UNL1        0.0437
     23 C         142.0326  136.0526  156.3876 C.ar    1  UNL1       -0.0208
     24 C         141.0903  135.6561  155.2900 C.ar    1  UNL1       -0.0042
     25 C         141.4020  134.4704  154.4258 C.ar    1  UNL1       -0.0003
     26 C         142.6561  133.6811  154.6593 C.ar    1  UNL1       -0.0000
     27 C         143.5984  134.0776  155.7569 C.ar    1  UNL1       -0.0003
     28 C         143.2866  135.2633  156.6211 C.ar    1  UNL1       -0.0042
@<TRIPOS>BOND
     1     1     2    1
     2     2     3    1
     3     3     4    1
     4     4     5    1
     5     5     6    1
     6     6     7    1
     7     7    21    1
     8    21    22    1
     9    22    23    1
    10    23    24   ar
    11    24    25   ar
    12    25    26   ar
    13    26    27   ar
    14    27    28   ar
    15     7     8    1
    16     8     9    1
    17     4    10    1
    18    10    11    1
    19    11    14    1
    20    14    15   ar
    21    15    16   ar
    22    16    17   ar
    23    17    18   ar
    24    18    19   ar
    25    19    20    1
    26    11    12   am
    27    12    13    2
    28    12     2    1
    29     9     4    1
    30    19    14   ar
    31    28    23   ar
@<TRIPOS>MOLECULE
*****
 28 31 0 0 0
SMALL
GASTEIGER

@<TRIPOS>ATOM
      1 C         144.5262  137.1934  166.9757 C.3     1  UNL1        0.0420
      2 C         143.6796  138.3825  166.6298 C.3     1  UNL1        0.1912
      3 O         143.5683  138.8346  165.2040 O.3     1  UNL1       -0.3500
      4 C         142.7217  140.0236  164.8581 C.3     1  UNL1        0.1145
      5 C         141.8752  141.2126  164.5122 C.3     1  UNL1        0.0463
      6 C         141.7639  141.6648  163.0864 C.3     1  UNL1        0.0746
      7 N         142.4992  140.9279  162.0064 N.3     1  UNL1       -0.2722
      8 C         143.3457  139.7390  162.3522 C.3     1  UNL1        0.0746
      9 C         143.4570  139.2868  163.7780 C.3     1  UNL1        0.0463
     10 C         141.9864  140.7604  165.9381 C.3     1  UNL1        0.1254
     11 N         142.0977  140.3082  167.3640 N.am    1  UNL1       -0.2535
     12 C         142.9443  139.1193  167.7099 C.2     1  UNL1        0.2566
     13 O         143.0556  138.6670  169.1358 O.2     1  UNL1       -0.2719
     14 C         141.3625  141.0450  168.4441 C.ar    1  UNL1        0.0645
     15 C         139.9722  140.6288  168.8232 C.ar    1  UNL1        0.0158
     16 C         139.2369  141.3656  169.9032 C.ar    1  UNL1        0.0013
     17 C         139.8919  142.5187  170.6041 C.ar    1  UNL1        0.0009
     18 C         141.2823  142.9350  170.2251 C.ar    1  UNL1        0.0127
     19 C         142.0175  142.1982  169.1450 C.ar    1  UNL1        0.0713
     20 CL        143.4078  142.6144  168.7659 Cl      1  UNL1       -0.0809
     21 C         142.3878  141.3802  160.5804 C.3     1  UNL1        0.0768
     22 C         141.2961  140.8398  159.7053 C.3     1  UNL1        0.0437
     23 C         140.1041  140.1689  160.3211 C.ar    1  UNL1       -0.0208
     24 C         138.8973  140.9781  160.6938 C.ar    1  UNL1       -0.0042
     25 C         137.7054  140.3072  161.3096 C.ar    1  UNL1       -0.0003
     26 C         137.7202  138.8271  161.5527 C.ar    1  UNL1       -0.0000
     27 C         138.9270  138.0179  161.1800 C.ar    1  UNL1       -0.0003
     28 C         140.1189  138.6888  160.5642 C.ar    1  UNL1       -0.0042
@<TRIPOS>BOND
     1     1     2    1
     2     2     3    1
     3     3     4    1
     4     4     5    1
     5     5     6    1
     6     6     7    1
     7     7    21    1
     8    21    22    1
     9    22    23    1
    10    23    24   ar
    11    24    25   ar
    12    25    26   ar
    13    26    27   ar
    14    27    28   ar
    15     7     8    1
    16     8     9    1
    17     4    10    1
    18    10    11    1
    19    11    14    1
    20    14    15   ar
    21    15    16   ar
    22    16    17   ar
    23    17    18   ar
    24    18    19   ar
    25    19    20    1
    26    11    12   am
    27    12    13    2
    28    12     2    1
    29     9     4    1
    30    19    14   ar
    31    28    23   ar
