@<TRIPOS>MOLECULE
*****
 40 43 0 0 0
SMALL
GASTEIGER

@<TRIPOS>ATOM
      1 N         140.5108  139.6838  160.5250 N.3     1  UNL1       -0.2711
      2 C         140.6951  140.2313  159.1407 C.3     1  UNL1        0.0933
      3 C         139.3001  139.8080  158.7875 C.3     1  UNL1        0.1035
      4 C         139.1158  139.2604  160.1718 C.3     1  UNL1        0.0933
      5 C         143.0790  139.4203  164.2108 C.3     1  UNL1        0.1141
      6 O         144.4967  139.1295  164.6050 O.3     1  UNL1       -0.3821
      7 C         141.6244  139.7653  164.3333 C.3     1  UNL1        0.0331
      8 C         140.7684  139.8531  163.1047 C.3     1  UNL1        0.0187
      9 C         141.3669  139.5959  161.7536 C.3     1  UNL1        0.0578
     10 C         142.8215  139.2509  161.6310 C.3     1  UNL1        0.0187
     11 C         143.6776  139.1631  162.8596 C.3     1  UNL1        0.0331
     12 H         144.5842  139.1948  165.5688 H       1  UNL1        0.2107
     13 C         142.6003  140.5312  167.8989 C.ar    1  UNL1        0.2579
     14 N         143.0189  139.1021  168.0786 N.ar    1  UNL1       -0.2040
     15 C         143.2491  138.5120  166.7190 C.ar    1  UNL1        0.1071
     16 C         142.9729  139.5765  165.6988 C.ar    1  UNL1        0.0547
     17 S         142.5719  140.8244  166.4281 S.2     1  UNL1       -0.0307
     18 O         142.2685  141.4976  168.9971 O.3     1  UNL1       -0.4595
     19 C         139.8137  140.8219  169.5138 C.3     1  UNL1        0.0473
     20 C         140.8412  141.8826  169.2514 C.3     1  UNL1        0.1683
     21 C         140.4415  143.3283  169.2433 C.3     1  UNL1        0.0473
     22 N         138.4440  139.8958  157.5590 N.am    1  UNL1       -0.3018
     23 C         137.7502  141.1815  157.2186 C.2     1  UNL1        0.2426
     24 O         137.9126  142.3793  158.1068 O.2     1  UNL1       -0.2733
     25 H         138.3374  139.1096  156.9761 H       1  UNL1        0.1495
     26 C         136.8941  141.2693  155.9901 C.3     1  UNL1        0.1759
     27 N         135.4033  141.3707  156.1205 N.am    1  UNL1       -0.2931
     28 C         134.5399  140.1873  155.7974 C.2     1  UNL1        0.2462
     29 O         135.1675  138.9026  155.3438 O.2     1  UNL1       -0.2701
     30 H         134.9914  142.2138  156.4183 H       1  UNL1        0.1502
     31 C         133.0491  140.2887  155.9279 C.ar    1  UNL1        0.0533
     32 C         132.3171  141.4354  155.2960 C.ar    1  UNL1        0.0045
     33 C         130.8262  141.5367  155.4265 C.ar    1  UNL1        0.0001
     34 C         130.0673  140.4913  156.1889 C.ar    1  UNL1        0.0039
     35 C         130.7993  139.3446  156.8208 C.ar    1  UNL1        0.0716
     36 C         132.2901  139.2433  156.6903 C.ar    1  UNL1        0.0084
     37 C         130.0404  138.2993  157.5832 C.3     1  UNL1        0.4186
     38 F         129.2815  137.2538  158.3456 F       1  UNL1       -0.1659
     39 F         130.2837  137.3159  156.4769 F       1  UNL1       -0.1659
     40 F         129.7971  139.2826  158.6894 F       1  UNL1       -0.1659
@<TRIPOS>BOND
     1    19    20    1
     2    20    21    1
     3    20    18    1
     4    18    13    1
     5    13    14   ar
     6    14    15   ar
     7    15    16   ar
     8    16     5    1
     9     5     6    1
    10     5     7    1
    11     7     8    1
    12     8     9    1
    13     9     1    1
    14     1     2    1
    15     2     3    1
    16     3    22    1
    17    22    23   am
    18    23    24    2
    19    23    26    1
    20    26    27    1
    21    27    28   am
    22    28    29    2
    23    28    31    1
    24    31    32   ar
    25    32    33   ar
    26    33    34   ar
    27    34    35   ar
    28    35    37    1
    29    37    38    1
    30    37    39    1
    31    37    40    1
    32    35    36   ar
    33     3     4    1
    34     9    10    1
    35    10    11    1
    36    16    17   ar
    37    17    13   ar
    38    11     5    1
    39     4     1    1
    40    36    31   ar
    41     6    12    1
    42    22    25    1
    43    27    30    1
@<TRIPOS>MOLECULE
*****
 40 43 0 0 0
SMALL
GASTEIGER

@<TRIPOS>ATOM
      1 N         141.2506  138.6239  160.9436 N.3     1  UNL1       -0.2711
      2 C         142.3861  137.6742  160.7015 C.3     1  UNL1        0.0933
      3 C         142.3186  137.9680  159.2321 C.3     1  UNL1        0.1035
      4 C         141.1830  138.9176  159.4742 C.3     1  UNL1        0.0933
      5 C         138.9849  140.0153  164.5742 C.3     1  UNL1        0.1141
      6 O         137.7246  140.7458  164.9319 O.3     1  UNL1       -0.3821
      7 C         140.2811  139.2779  164.7360 C.3     1  UNL1        0.0331
      8 C         141.0363  138.8141  163.5259 C.3     1  UNL1        0.0187
      9 C         140.4953  139.0877  162.1538 C.3     1  UNL1        0.0578
     10 C         139.1992  139.8251  161.9919 C.3     1  UNL1        0.0187
     11 C         138.4440  140.2888  163.2021 C.3     1  UNL1        0.0331
     12 H         137.6524  140.8124  165.8969 H       1  UNL1        0.2107
     13 C         139.7828  140.4885  168.3431 C.ar    1  UNL1        0.2579
     14 N         138.7109  139.4410  168.4031 N.ar    1  UNL1       -0.2040
     15 C         138.2815  139.1362  166.9985 C.ar    1  UNL1        0.1071
     16 C         139.0881  139.9954  166.0705 C.ar    1  UNL1        0.0547
     17 S         140.0160  140.8312  166.9015 S.2     1  UNL1       -0.0307
     18 O         140.4963  141.0882  169.5185 O.3     1  UNL1       -0.4595
     19 C         140.4424  143.6846  169.5942 C.3     1  UNL1        0.0473
     20 C         141.1974  142.4068  169.3773 C.3     1  UNL1        0.1683
     21 C         142.6534  142.4475  169.0192 C.3     1  UNL1        0.0473
     22 N         143.0737  137.5042  158.0220 N.am    1  UNL1       -0.3018
     23 C         142.3297  136.9948  156.8232 C.2     1  UNL1        0.2426
     24 O         140.8304  136.9492  156.8347 O.2     1  UNL1       -0.2733
     25 H         144.0578  137.5341  158.0144 H       1  UNL1        0.1495
     26 C         143.0849  136.5310  155.6130 C.3     1  UNL1        0.1759
     27 N         143.6414  135.1390  155.5643 N.am    1  UNL1       -0.2931
     28 C         142.7266  133.9732  155.3318 C.2     1  UNL1        0.2462
     29 O         141.2552  134.1994  155.1480 O.2     1  UNL1       -0.2701
     30 H         144.6072  134.9905  155.6849 H       1  UNL1        0.1502
     31 C         143.2832  132.5811  155.2830 C.ar    1  UNL1        0.0533
     32 C         143.3324  131.8382  153.9809 C.ar    1  UNL1        0.0045
     33 C         143.8890  130.4461  153.9322 C.ar    1  UNL1        0.0001
     34 C         144.3964  129.7970  155.1856 C.ar    1  UNL1        0.0039
     35 C         144.3472  130.5399  156.4878 C.ar    1  UNL1        0.0716
     36 C         143.7906  131.9319  156.5365 C.ar    1  UNL1        0.0084
     37 C         144.8545  129.8908  157.7412 C.3     1  UNL1        0.4186
     38 F         145.3620  129.2417  158.9948 F       1  UNL1       -0.1659
     39 F         145.1863  131.2404  158.3058 F       1  UNL1       -0.1659
     40 F         144.5228  128.5413  157.1767 F       1  UNL1       -0.1659
@<TRIPOS>BOND
     1    19    20    1
     2    20    21    1
     3    20    18    1
     4    18    13    1
     5    13    14   ar
     6    14    15   ar
     7    15    16   ar
     8    16     5    1
     9     5     6    1
    10     5     7    1
    11     7     8    1
    12     8     9    1
    13     9     1    1
    14     1     2    1
    15     2     3    1
    16     3    22    1
    17    22    23   am
    18    23    24    2
    19    23    26    1
    20    26    27    1
    21    27    28   am
    22    28    29    2
    23    28    31    1
    24    31    32   ar
    25    32    33   ar
    26    33    34   ar
    27    34    35   ar
    28    35    37    1
    29    37    38    1
    30    37    39    1
    31    37    40    1
    32    35    36   ar
    33     3     4    1
    34     9    10    1
    35    10    11    1
    36    16    17   ar
    37    17    13   ar
    38    11     5    1
    39     4     1    1
    40    36    31   ar
    41     6    12    1
    42    22    25    1
    43    27    30    1
@<TRIPOS>MOLECULE
*****
 40 43 0 0 0
SMALL
GASTEIGER

@<TRIPOS>ATOM
      1 N         143.0695  139.0913  161.0254 N.3     1  UNL1       -0.2711
      2 C         142.9285  139.5771  159.6133 C.3     1  UNL1        0.0933
      3 C         142.9215  138.1585  159.1259 C.3     1  UNL1        0.1035
      4 C         143.0625  137.6727  160.5381 C.3     1  UNL1        0.0933
      5 C         143.3833  141.0699  165.0549 C.3     1  UNL1        0.1141
      6 O         143.9279  142.3186  165.6825 O.3     1  UNL1       -0.3821
      7 C         142.7051  139.7384  164.9240 C.3     1  UNL1        0.0331
      8 C         142.6005  139.0789  163.5808 C.3     1  UNL1        0.0187
      9 C         143.1741  139.7509  162.3686 C.3     1  UNL1        0.0578
     10 C         143.8522  141.0824  162.4995 C.3     1  UNL1        0.0187
     11 C         143.9568  141.7419  163.8427 C.3     1  UNL1        0.0331
     12 H         143.7488  142.3060  166.6358 H       1  UNL1        0.2107
     13 C         142.3076  141.2019  168.7820 C.ar    1  UNL1        0.2579
     14 N         142.5073  139.7277  168.5900 N.ar    1  UNL1       -0.2040
     15 C         142.9345  139.4988  167.1704 C.ar    1  UNL1        0.1071
     16 C         142.9989  140.8316  166.4851 C.ar    1  UNL1        0.0547
     17 S         142.6114  141.8842  167.4811 S.2     1  UNL1       -0.0307
     18 O         141.8792  141.8756  170.0519 O.3     1  UNL1       -0.4595
     19 C         139.3000  141.7507  170.3381 C.3     1  UNL1        0.0473
     20 C         140.5458  142.5587  170.1256 C.3     1  UNL1        0.1683
     21 C         140.4582  144.0497  169.9869 C.3     1  UNL1        0.0473
     22 N         142.8169  137.4990  157.7828 N.am    1  UNL1       -0.3018
     23 C         141.4799  137.3617  157.1167 C.2     1  UNL1        0.2426
     24 O         140.2475  137.8840  157.7938 O.2     1  UNL1       -0.2733
     25 H         143.6258  137.1562  157.3384 H       1  UNL1        0.1495
     26 C         141.3753  136.7021  155.7736 C.3     1  UNL1        0.1759
     27 N         141.2646  135.2093  155.6778 N.am    1  UNL1       -0.2931
     28 C         142.4356  134.3455  156.0422 C.2     1  UNL1        0.2462
     29 O         143.7172  134.9745  156.5024 O.2     1  UNL1       -0.2701
     30 H         140.4235  134.7964  155.3757 H       1  UNL1        0.1502
     31 C         142.3250  132.8527  155.9464 C.ar    1  UNL1        0.0533
     32 C         141.3729  132.2325  154.9670 C.ar    1  UNL1        0.0045
     33 C         141.2623  130.7396  154.8712 C.ar    1  UNL1        0.0001
     34 C         142.1037  129.8670  155.7547 C.ar    1  UNL1        0.0039
     35 C         143.0557  130.4871  156.7340 C.ar    1  UNL1        0.0716
     36 C         143.1663  131.9799  156.8299 C.ar    1  UNL1        0.0084
     37 C         143.8971  129.6145  157.6175 C.3     1  UNL1        0.4186
     38 F         144.7384  128.7418  158.5010 F       1  UNL1       -0.1659
     39 F         143.2136  128.3980  157.0668 F       1  UNL1       -0.1659
     40 F         144.5804  130.8309  158.1682 F       1  UNL1       -0.1659
@<TRIPOS>BOND
     1    19    20    1
     2    20    21    1
     3    20    18    1
     4    18    13    1
     5    13    14   ar
     6    14    15   ar
     7    15    16   ar
     8    16     5    1
     9     5     6    1
    10     5     7    1
    11     7     8    1
    12     8     9    1
    13     9     1    1
    14     1     2    1
    15     2     3    1
    16     3    22    1
    17    22    23   am
    18    23    24    2
    19    23    26    1
    20    26    27    1
    21    27    28   am
    22    28    29    2
    23    28    31    1
    24    31    32   ar
    25    32    33   ar
    26    33    34   ar
    27    34    35   ar
    28    35    37    1
    29    37    38    1
    30    37    39    1
    31    37    40    1
    32    35    36   ar
    33     3     4    1
    34     9    10    1
    35    10    11    1
    36    16    17   ar
    37    17    13   ar
    38    11     5    1
    39     4     1    1
    40    36    31   ar
    41     6    12    1
    42    22    25    1
    43    27    30    1
@<TRIPOS>MOLECULE
*****
 40 43 0 0 0
SMALL
GASTEIGER

@<TRIPOS>ATOM
      1 N         144.5296  142.6203  158.3592 N.3     1  UNL1       -0.2711
      2 C         143.2383  143.3617  158.5406 C.3     1  UNL1        0.0933
      3 C         143.2259  142.9849  159.9924 C.3     1  UNL1        0.1035
      4 C         144.5172  142.2435  159.8111 C.3     1  UNL1        0.0933
      5 C         147.2955  141.8469  154.8949 C.3     1  UNL1        0.1141
      6 O         147.3335  141.0865  153.6025 O.3     1  UNL1       -0.3821
      7 C         147.7348  142.7342  156.0217 C.3     1  UNL1        0.0331
      8 C         146.8128  142.9919  157.1765 C.3     1  UNL1        0.0187
      9 C         145.4516  142.3625  157.2044 C.3     1  UNL1        0.0578
     10 C         145.0123  141.4753  156.0776 C.3     1  UNL1        0.0187
     11 C         145.9342  141.2175  154.9228 C.3     1  UNL1        0.0331
     12 H         148.1885  141.2306  153.1676 H       1  UNL1        0.2107
     13 C         151.0833  142.2895  154.1721 C.ar    1  UNL1        0.2579
     14 N         150.4866  143.2596  153.1960 N.ar    1  UNL1       -0.2040
     15 C         148.9951  143.2119  153.3480 C.ar    1  UNL1        0.1071
     16 C         148.6699  142.2122  154.4180 C.ar    1  UNL1        0.0547
     17 S         149.9605  141.6421  154.9274 S.2     1  UNL1       -0.0307
     18 O         152.5459  142.0148  154.3600 O.3     1  UNL1       -0.4595
     19 C         154.7628  140.9588  153.5113 C.3     1  UNL1        0.0473
     20 C         153.2875  141.1817  153.3570 C.3     1  UNL1        0.1683
     21 C         152.5538  140.5716  152.1997 C.3     1  UNL1        0.0473
     22 N         142.3040  143.2427  161.1472 N.am    1  UNL1       -0.3018
     23 C         142.7728  144.0626  162.3126 C.2     1  UNL1        0.2426
     24 O         144.1634  144.6247  162.3231 O.2     1  UNL1       -0.2733
     25 H         141.3913  142.8738  161.1403 H       1  UNL1        0.1495
     26 C         141.8509  144.3204  163.4675 C.3     1  UNL1        0.1759
     27 N         141.5942  143.2416  164.4775 N.am    1  UNL1       -0.2931
     28 C         140.3405  143.2678  165.3007 C.2     1  UNL1        0.2462
     29 O         139.3435  144.3728  165.1138 O.2     1  UNL1       -0.2701
     30 H         142.2486  142.5164  164.6001 H       1  UNL1        0.1502
     31 C         140.0838  142.1890  166.3107 C.ar    1  UNL1        0.0533
     32 C         140.4689  142.3977  167.7453 C.ar    1  UNL1        0.0045
     33 C         140.2121  141.3188  168.7554 C.ar    1  UNL1        0.0001
     34 C         139.5704  140.0312  168.3308 C.ar    1  UNL1        0.0039
     35 C         139.1853  139.8225  166.8961 C.ar    1  UNL1        0.0716
     36 C         139.4420  140.9013  165.8861 C.ar    1  UNL1        0.0084
     37 C         138.5436  138.5349  166.4715 C.3     1  UNL1        0.4186
     38 F         137.9018  137.2473  166.0469 F       1  UNL1       -0.1659
     39 F         139.6664  138.2936  165.5066 F       1  UNL1       -0.1659
     40 F         137.4208  138.7764  167.4365 F       1  UNL1       -0.1659
@<TRIPOS>BOND
     1    19    20    1
     2    20    21    1
     3    20    18    1
     4    18    13    1
     5    13    14   ar
     6    14    15   ar
     7    15    16   ar
     8    16     5    1
     9     5     6    1
    10     5     7    1
    11     7     8    1
    12     8     9    1
    13     9     1    1
    14     1     2    1
    15     2     3    1
    16     3    22    1
    17    22    23   am
    18    23    24    2
    19    23    26    1
    20    26    27    1
    21    27    28   am
    22    28    29    2
    23    28    31    1
    24    31    32   ar
    25    32    33   ar
    26    33    34   ar
    27    34    35   ar
    28    35    37    1
    29    37    38    1
    30    37    39    1
    31    37    40    1
    32    35    36   ar
    33     3     4    1
    34     9    10    1
    35    10    11    1
    36    16    17   ar
    37    17    13   ar
    38    11     5    1
    39     4     1    1
    40    36    31   ar
    41     6    12    1
    42    22    25    1
    43    27    30    1
@<TRIPOS>MOLECULE
*****
 40 43 0 0 0
SMALL
GASTEIGER

@<TRIPOS>ATOM
      1 N         141.5156  139.0243  160.9205 N.3     1  UNL1       -0.2711
      2 C         141.7361  139.5672  159.5397 C.3     1  UNL1        0.0933
      3 C         142.5080  138.3331  159.1777 C.3     1  UNL1        0.1035
      4 C         142.2875  137.7901  160.5585 C.3     1  UNL1        0.0933
      5 C         139.4105  140.4903  164.6177 C.3     1  UNL1        0.1141
      6 O         138.6495  141.6859  165.1089 O.3     1  UNL1       -0.3821
      7 C         140.0626  139.1394  164.6118 C.3     1  UNL1        0.0331
      8 C         140.7642  138.6508  163.3794 C.3     1  UNL1        0.0187
      9 C         140.8139  139.5130  162.1530 C.3     1  UNL1        0.0578
     10 C         140.1619  140.8638  162.1589 C.3     1  UNL1        0.0187
     11 C         139.4602  141.3524  163.3913 C.3     1  UNL1        0.0331
     12 H         138.3729  141.5384  166.0268 H       1  UNL1        0.2107
     13 C         139.1630  139.7924  168.4279 C.ar    1  UNL1        0.2579
     14 N         138.0634  138.9188  167.9012 N.ar    1  UNL1       -0.2040
     15 C         138.0222  139.0738  166.4098 C.ar    1  UNL1        0.1071
     16 C         139.0965  140.0434  166.0148 C.ar    1  UNL1        0.0547
     17 S         139.8015  140.4875  167.2621 S.2     1  UNL1       -0.0307
     18 O         139.5553  139.9444  169.8677 O.3     1  UNL1       -0.4595
     19 C         141.8339  140.9208  170.6449 C.3     1  UNL1        0.0473
     20 C         140.3875  141.1156  170.2987 C.3     1  UNL1        0.1683
     21 C         139.7733  142.4814  170.3836 C.3     1  UNL1        0.0473
     22 N         143.2097  137.8443  157.9454 N.am    1  UNL1       -0.3018
     23 C         142.4231  137.2140  156.8345 C.2     1  UNL1        0.2426
     24 O         140.9347  137.0724  156.9561 O.2     1  UNL1       -0.2733
     25 H         144.1866  137.9373  157.8656 H       1  UNL1        0.1495
     26 C         143.1248  136.7252  155.6022 C.3     1  UNL1        0.1759
     27 N         143.1459  135.2599  155.2825 N.am    1  UNL1       -0.2931
     28 C         143.3786  134.2574  156.3739 C.2     1  UNL1        0.2462
     29 O         143.5902  134.7204  157.7849 O.2     1  UNL1       -0.2701
     30 H         143.0070  134.9560  154.3565 H       1  UNL1        0.1502
     31 C         143.3997  132.7921  156.0543 C.ar    1  UNL1        0.0533
     32 C         144.6957  132.0373  156.0805 C.ar    1  UNL1        0.0045
     33 C         144.7168  130.5718  155.7609 C.ar    1  UNL1        0.0001
     34 C         143.4419  129.8612  155.4149 C.ar    1  UNL1        0.0039
     35 C         142.1459  130.6160  155.3887 C.ar    1  UNL1        0.0716
     36 C         142.1248  132.0814  155.7083 C.ar    1  UNL1        0.0084
     37 C         140.8711  129.9054  155.0427 C.3     1  UNL1        0.4186
     38 F         139.5961  129.1949  154.6968 F       1  UNL1       -0.1659
     39 F         140.2082  131.2245  154.7763 F       1  UNL1       -0.1659
     40 F         141.5339  128.5865  155.3092 F       1  UNL1       -0.1659
@<TRIPOS>BOND
     1    19    20    1
     2    20    21    1
     3    20    18    1
     4    18    13    1
     5    13    14   ar
     6    14    15   ar
     7    15    16   ar
     8    16     5    1
     9     5     6    1
    10     5     7    1
    11     7     8    1
    12     8     9    1
    13     9     1    1
    14     1     2    1
    15     2     3    1
    16     3    22    1
    17    22    23   am
    18    23    24    2
    19    23    26    1
    20    26    27    1
    21    27    28   am
    22    28    29    2
    23    28    31    1
    24    31    32   ar
    25    32    33   ar
    26    33    34   ar
    27    34    35   ar
    28    35    37    1
    29    37    38    1
    30    37    39    1
    31    37    40    1
    32    35    36   ar
    33     3     4    1
    34     9    10    1
    35    10    11    1
    36    16    17   ar
    37    17    13   ar
    38    11     5    1
    39     4     1    1
    40    36    31   ar
    41     6    12    1
    42    22    25    1
    43    27    30    1
@<TRIPOS>MOLECULE
*****
 40 43 0 0 0
SMALL
GASTEIGER

@<TRIPOS>ATOM
      1 N         139.8034  139.8740  160.8490 N.3     1  UNL1       -0.2711
      2 C         139.8622  139.6392  159.3687 C.3     1  UNL1        0.0933
      3 C         138.4448  140.1123  159.2373 C.3     1  UNL1        0.1035
      4 C         138.3861  140.3471  160.7177 C.3     1  UNL1        0.0933
      5 C         142.6852  139.3684  164.2681 C.3     1  UNL1        0.1141
      6 O         144.1377  139.0866  164.5144 O.3     1  UNL1       -0.3821
      7 C         141.2393  139.6585  164.5425 C.3     1  UNL1        0.0331
      8 C         140.2788  139.8270  163.4028 C.3     1  UNL1        0.0187
      9 C         140.7641  139.7054  161.9887 C.3     1  UNL1        0.0578
     10 C         142.2099  139.4154  161.7143 C.3     1  UNL1        0.0187
     11 C         143.1705  139.2469  162.8539 C.3     1  UNL1        0.0331
     12 H         144.3065  139.0708  165.4695 H       1  UNL1        0.2107
     13 C         142.3075  140.0451  168.0714 C.ar    1  UNL1        0.2579
     14 N         143.1608  138.8116  168.0798 N.ar    1  UNL1       -0.2040
     15 C         143.4062  138.4080  166.6561 C.ar    1  UNL1        0.1071
     16 C         142.7044  139.3921  165.7677 C.ar    1  UNL1        0.0547
     17 S         142.0254  140.4039  166.6425 S.2     1  UNL1       -0.0307
     18 O         141.8214  140.7893  169.2797 O.3     1  UNL1       -0.4595
     19 C         143.8166  142.4355  169.5230 C.3     1  UNL1        0.0473
     20 C         142.3420  142.1652  169.5728 C.3     1  UNL1        0.1683
     21 C         141.3880  143.2707  169.9155 C.3     1  UNL1        0.0473
     22 N         137.4842  140.2808  158.0977 N.am    1  UNL1       -0.3018
     23 C         137.6908  141.3809  157.0991 C.2     1  UNL1        0.2426
     24 O         138.8579  142.3125  157.2402 O.2     1  UNL1       -0.2733
     25 H         136.7182  139.6694  158.0052 H       1  UNL1        0.1495
     26 C         136.7301  141.5495  155.9595 C.3     1  UNL1        0.1759
     27 N         135.2529  141.4625  156.2048 N.am    1  UNL1       -0.2931
     28 C         134.5139  140.1954  155.8913 C.2     1  UNL1        0.2462
     29 O         135.2521  139.0152  155.3326 O.2     1  UNL1       -0.2701
     30 H         134.7684  142.2371  156.5715 H       1  UNL1        0.1502
     31 C         133.0366  140.1084  156.1366 C.ar    1  UNL1        0.0533
     32 C         132.4825  139.0117  156.9969 C.ar    1  UNL1        0.0045
     33 C         131.0051  138.9248  157.2422 C.ar    1  UNL1        0.0001
     34 C         130.0821  139.9346  156.6271 C.ar    1  UNL1        0.0039
     35 C         130.6363  141.0313  155.7668 C.ar    1  UNL1        0.0716
     36 C         132.1135  141.1182  155.5215 C.ar    1  UNL1        0.0084
     37 C         129.7132  142.0410  155.1517 C.3     1  UNL1        0.4186
     38 F         128.7901  143.0508  154.5366 F       1  UNL1       -0.1659
     39 F         128.7607  140.9436  154.7797 F       1  UNL1       -0.1659
     40 F         130.6658  143.1384  155.5238 F       1  UNL1       -0.1659
@<TRIPOS>BOND
     1    19    20    1
     2    20    21    1
     3    20    18    1
     4    18    13    1
     5    13    14   ar
     6    14    15   ar
     7    15    16   ar
     8    16     5    1
     9     5     6    1
    10     5     7    1
    11     7     8    1
    12     8     9    1
    13     9     1    1
    14     1     2    1
    15     2     3    1
    16     3    22    1
    17    22    23   am
    18    23    24    2
    19    23    26    1
    20    26    27    1
    21    27    28   am
    22    28    29    2
    23    28    31    1
    24    31    32   ar
    25    32    33   ar
    26    33    34   ar
    27    34    35   ar
    28    35    37    1
    29    37    38    1
    30    37    39    1
    31    37    40    1
    32    35    36   ar
    33     3     4    1
    34     9    10    1
    35    10    11    1
    36    16    17   ar
    37    17    13   ar
    38    11     5    1
    39     4     1    1
    40    36    31   ar
    41     6    12    1
    42    22    25    1
    43    27    30    1
@<TRIPOS>MOLECULE
*****
 40 43 0 0 0
SMALL
GASTEIGER

@<TRIPOS>ATOM
      1 N         142.4734  137.0239  156.7368 N.3     1  UNL1       -0.2711
      2 C         142.6086  137.9553  157.9048 C.3     1  UNL1        0.0933
      3 C         142.4574  139.1305  156.9851 C.3     1  UNL1        0.1035
      4 C         142.3222  138.1991  155.8171 C.3     1  UNL1        0.0933
      5 C         142.5073  132.5549  156.2100 C.3     1  UNL1        0.1141
      6 O         141.8631  131.4920  155.3703 O.3     1  UNL1       -0.3821
      7 C         143.3813  133.1944  157.2479 C.3     1  UNL1        0.0331
      8 C         143.3699  134.6840  157.4234 C.3     1  UNL1        0.0187
      9 C         142.4847  135.5342  156.5612 C.3     1  UNL1        0.0578
     10 C         141.6107  134.8947  155.5233 C.3     1  UNL1        0.0187
     11 C         141.6220  133.4051  155.3477 C.3     1  UNL1        0.0331
     12 H         142.2030  130.6223  155.6328 H       1  UNL1        0.2107
     13 C         143.5966  129.0438  157.4554 C.ar    1  UNL1        0.2579
     14 N         144.7773  129.8747  157.8620 N.ar    1  UNL1       -0.2040
     15 C         144.5130  131.2912  157.4450 C.ar    1  UNL1        0.1071
     16 C         143.1688  131.3356  156.7806 C.ar    1  UNL1        0.0547
     17 S         142.6025  129.9466  156.7870 S.2     1  UNL1       -0.0307
     18 O         143.4377  127.5689  157.6780 O.3     1  UNL1       -0.4595
     19 C         141.1384  126.3856  157.9281 C.3     1  UNL1        0.0473
     20 C         142.3281  127.0569  158.5478 C.3     1  UNL1        0.1683
     21 C         142.4081  127.2163  160.0371 C.3     1  UNL1        0.0473
     22 N         142.4461  140.6202  157.1607 N.am    1  UNL1       -0.3018
     23 C         143.7308  141.3572  157.3982 C.2     1  UNL1        0.2426
     24 O         145.0268  140.6045  157.4601 O.2     1  UNL1       -0.2733
     25 H         141.5955  141.1142  157.1201 H       1  UNL1        0.1495
     26 C         143.7195  142.8468  157.5737 C.3     1  UNL1        0.1759
     27 N         143.5657  143.4394  158.9431 N.am    1  UNL1       -0.2931
     28 C         142.2193  143.4606  159.6042 C.2     1  UNL1        0.2462
     29 O         141.0269  142.8893  158.8959 O.2     1  UNL1       -0.2701
     30 H         144.3483  143.8144  159.4079 H       1  UNL1        0.1502
     31 C         142.0654  144.0532  160.9735 C.ar    1  UNL1        0.0533
     32 C         140.8743  144.9076  161.2915 C.ar    1  UNL1        0.0045
     33 C         140.7204  145.5002  162.6609 C.ar    1  UNL1        0.0001
     34 C         141.7577  145.2384  163.7123 C.ar    1  UNL1        0.0039
     35 C         142.9489  144.3840  163.3943 C.ar    1  UNL1        0.0716
     36 C         143.1028  143.7914  162.0250 C.ar    1  UNL1        0.0084
     37 C         143.9862  144.1222  164.4457 C.3     1  UNL1        0.4186
     38 F         145.0236  143.8603  165.4971 F       1  UNL1       -0.1659
     39 F         143.9159  142.6534  164.1492 F       1  UNL1       -0.1659
     40 F         144.0565  145.5909  164.7420 F       1  UNL1       -0.1659
@<TRIPOS>BOND
     1    19    20    1
     2    20    21    1
     3    20    18    1
     4    18    13    1
     5    13    14   ar
     6    14    15   ar
     7    15    16   ar
     8    16     5    1
     9     5     6    1
    10     5     7    1
    11     7     8    1
    12     8     9    1
    13     9     1    1
    14     1     2    1
    15     2     3    1
    16     3    22    1
    17    22    23   am
    18    23    24    2
    19    23    26    1
    20    26    27    1
    21    27    28   am
    22    28    29    2
    23    28    31    1
    24    31    32   ar
    25    32    33   ar
    26    33    34   ar
    27    34    35   ar
    28    35    37    1
    29    37    38    1
    30    37    39    1
    31    37    40    1
    32    35    36   ar
    33     3     4    1
    34     9    10    1
    35    10    11    1
    36    16    17   ar
    37    17    13   ar
    38    11     5    1
    39     4     1    1
    40    36    31   ar
    41     6    12    1
    42    22    25    1
    43    27    30    1
@<TRIPOS>MOLECULE
*****
 40 43 0 0 0
SMALL
GASTEIGER

@<TRIPOS>ATOM
      1 N         140.6603  138.9875  160.4354 N.3     1  UNL1       -0.2711
      2 C         141.8841  138.2331  160.0072 C.3     1  UNL1        0.0933
      3 C         141.3967  138.2479  158.5886 C.3     1  UNL1        0.1035
      4 C         140.1730  139.0022  159.0169 C.3     1  UNL1        0.0933
      5 C         139.0982  140.5565  164.3531 C.3     1  UNL1        0.1141
      6 O         137.8040  140.7084  165.0960 O.3     1  UNL1       -0.3821
      7 C         140.5647  140.6300  164.0470 C.3     1  UNL1        0.0331
      8 C         141.0854  140.1070  162.7411 C.3     1  UNL1        0.0187
      9 C         140.1396  139.5105  161.7414 C.3     1  UNL1        0.0578
     10 C         138.6730  139.4369  162.0475 C.3     1  UNL1        0.0187
     11 C         138.1523  139.9599  163.3533 C.3     1  UNL1        0.0331
     12 H         137.9714  141.1268  165.9549 H       1  UNL1        0.2107
     13 C         140.3642  141.5378  167.8886 C.ar    1  UNL1        0.2579
     14 N         140.3524  142.8724  167.2041 N.ar    1  UNL1       -0.2040
     15 C         139.8767  142.6673  165.7964 C.ar    1  UNL1        0.1071
     16 C         139.5945  141.2058  165.6109 C.ar    1  UNL1        0.0547
     17 S         139.8958  140.5077  166.9039 S.2     1  UNL1       -0.0307
     18 O         140.7726  141.2786  169.3085 O.3     1  UNL1       -0.4595
     19 C         142.2827  139.2443  169.8839 C.3     1  UNL1        0.0473
     20 C         142.1284  140.7105  169.6071 C.3     1  UNL1        0.1683
     21 C         143.3297  141.6084  169.6290 C.3     1  UNL1        0.0473
     22 N         141.9174  137.7249  157.2828 N.am    1  UNL1       -0.3018
     23 C         143.1813  138.2854  156.7007 C.2     1  UNL1        0.2426
     24 O         143.9243  139.3688  157.4246 O.2     1  UNL1       -0.2733
     25 H         141.4297  137.0138  156.8076 H       1  UNL1        0.1495
     26 C         143.7020  137.7624  155.3949 C.3     1  UNL1        0.1759
     27 N         143.8738  136.2860  155.1932 N.am    1  UNL1       -0.2931
     28 C         142.6856  135.4301  154.8679 C.2     1  UNL1        0.2462
     29 O         141.3256  136.0508  154.7443 O.2     1  UNL1       -0.2701
     30 H         144.7664  135.8787  155.2743 H       1  UNL1        0.1502
     31 C         142.8574  133.9538  154.6663 C.ar    1  UNL1        0.0533
     32 C         142.3624  133.3062  153.4071 C.ar    1  UNL1        0.0045
     33 C         142.5342  131.8297  153.2054 C.ar    1  UNL1        0.0001
     34 C         143.2010  131.0009  154.2630 C.ar    1  UNL1        0.0039
     35 C         143.6960  131.6485  155.5222 C.ar    1  UNL1        0.0716
     36 C         143.5242  133.1249  155.7238 C.ar    1  UNL1        0.0084
     37 C         144.3628  130.8197  156.5797 C.3     1  UNL1        0.4186
     38 F         145.0296  129.9908  157.6373 F       1  UNL1       -0.1659
     39 F         143.1305  129.9718  156.6921 F       1  UNL1       -0.1659
     40 F         145.5950  131.6676  156.4673 F       1  UNL1       -0.1659
@<TRIPOS>BOND
     1    19    20    1
     2    20    21    1
     3    20    18    1
     4    18    13    1
     5    13    14   ar
     6    14    15   ar
     7    15    16   ar
     8    16     5    1
     9     5     6    1
    10     5     7    1
    11     7     8    1
    12     8     9    1
    13     9     1    1
    14     1     2    1
    15     2     3    1
    16     3    22    1
    17    22    23   am
    18    23    24    2
    19    23    26    1
    20    26    27    1
    21    27    28   am
    22    28    29    2
    23    28    31    1
    24    31    32   ar
    25    32    33   ar
    26    33    34   ar
    27    34    35   ar
    28    35    37    1
    29    37    38    1
    30    37    39    1
    31    37    40    1
    32    35    36   ar
    33     3     4    1
    34     9    10    1
    35    10    11    1
    36    16    17   ar
    37    17    13   ar
    38    11     5    1
    39     4     1    1
    40    36    31   ar
    41     6    12    1
    42    22    25    1
    43    27    30    1
@<TRIPOS>MOLECULE
*****
 40 43 0 0 0
SMALL
GASTEIGER

@<TRIPOS>ATOM
      1 N         134.9709  140.0210  155.4617 N.3     1  UNL1       -0.2711
      2 C         136.2204  140.6043  156.0523 C.3     1  UNL1        0.0933
      3 C         137.0483  139.8045  155.0905 C.3     1  UNL1        0.1035
      4 C         135.7988  139.2213  154.5000 C.3     1  UNL1        0.0933
      5 C         130.5642  140.4802  156.2490 C.3     1  UNL1        0.1141
      6 O         129.4230  141.3887  155.8992 O.3     1  UNL1       -0.3821
      7 C         131.3201  139.3376  156.8597 C.3     1  UNL1        0.0331
      8 C         132.7890  139.1846  156.5973 C.3     1  UNL1        0.0187
      9 C         133.5020  140.1741  155.7241 C.3     1  UNL1        0.0578
     10 C         132.7460  141.3167  155.1133 C.3     1  UNL1        0.0187
     11 C         131.2772  141.4697  155.3757 C.3     1  UNL1        0.0331
     12 H         128.6129  141.0696  156.3268 H       1  UNL1        0.2107
     13 C         128.2248  138.6011  158.7110 C.ar    1  UNL1        0.2579
     14 N         127.2704  138.9372  157.6037 N.ar    1  UNL1       -0.2040
     15 C         128.0306  139.6820  156.5467 C.ar    1  UNL1        0.1071
     16 C         129.4548  139.8062  157.0007 C.ar    1  UNL1        0.0547
     17 S         129.5748  139.1382  158.3384 S.2     1  UNL1       -0.0307
     18 O         127.8882  137.8583  159.9701 O.3     1  UNL1       -0.4595
     19 C         127.1227  140.0808  161.0766 C.3     1  UNL1        0.0473
     20 C         127.3307  138.5971  161.1505 C.3     1  UNL1        0.1683
     21 C         126.9811  137.8523  162.4046 C.3     1  UNL1        0.0473
     22 N         138.5171  139.6514  154.8281 N.am    1  UNL1       -0.3018
     23 C         139.1968  138.3437  155.1080 C.2     1  UNL1        0.2426
     24 O         138.4074  137.1893  155.6503 O.2     1  UNL1       -0.2733
     25 H         139.0352  140.4091  154.4722 H       1  UNL1        0.1495
     26 C         140.6656  138.1906  154.8456 C.3     1  UNL1        0.1759
     27 N         141.2543  136.8248  154.6510 N.am    1  UNL1       -0.2931
     28 C         141.9518  136.1397  155.7887 C.2     1  UNL1        0.2462
     29 O         142.0605  136.8205  157.1209 O.2     1  UNL1       -0.2701
     30 H         141.1830  136.3780  153.7767 H       1  UNL1        0.1502
     31 C         142.5405  134.7739  155.5942 C.ar    1  UNL1        0.0533
     32 C         142.1844  133.9698  154.3790 C.ar    1  UNL1        0.0045
     33 C         142.7732  132.6039  154.1845 C.ar    1  UNL1        0.0001
     34 C         143.7180  132.0421  155.2051 C.ar    1  UNL1        0.0039
     35 C         144.0741  132.8462  156.4203 C.ar    1  UNL1        0.0716
     36 C         143.4854  134.2120  156.6148 C.ar    1  UNL1        0.0084
     37 C         145.0189  132.2845  157.4409 C.3     1  UNL1        0.4186
     38 F         145.9638  131.7227  158.4615 F       1  UNL1       -0.1659
     39 F         145.3367  131.1444  156.5192 F       1  UNL1       -0.1659
     40 F         144.7012  133.4245  158.3625 F       1  UNL1       -0.1659
@<TRIPOS>BOND
     1    19    20    1
     2    20    21    1
     3    20    18    1
     4    18    13    1
     5    13    14   ar
     6    14    15   ar
     7    15    16   ar
     8    16     5    1
     9     5     6    1
    10     5     7    1
    11     7     8    1
    12     8     9    1
    13     9     1    1
    14     1     2    1
    15     2     3    1
    16     3    22    1
    17    22    23   am
    18    23    24    2
    19    23    26    1
    20    26    27    1
    21    27    28   am
    22    28    29    2
    23    28    31    1
    24    31    32   ar
    25    32    33   ar
    26    33    34   ar
    27    34    35   ar
    28    35    37    1
    29    37    38    1
    30    37    39    1
    31    37    40    1
    32    35    36   ar
    33     3     4    1
    34     9    10    1
    35    10    11    1
    36    16    17   ar
    37    17    13   ar
    38    11     5    1
    39     4     1    1
    40    36    31   ar
    41     6    12    1
    42    22    25    1
    43    27    30    1
