@<TRIPOS>MOLECULE
*****
 15 16 0 0 0
SMALL
GASTEIGER

@<TRIPOS>ATOM
      1 O         144.4153  142.8388  169.9148 O.2     1  UNL1       -0.2647
      2 C         143.1171  142.1421  169.6332 C.2     1  UNL1        0.3026
      3 N         142.8401  141.5971  168.2635 N.am    1  UNL1       -0.1769
      4 C         141.5419  140.9003  167.9820 C.2     1  UNL1        0.0568
      5 C         141.2650  140.3553  166.6121 C.3     1  UNL1        0.0716
      6 C         139.9668  139.6585  166.3306 C.2     1  UNL1        0.0105
      7 C         138.9456  139.5069  167.4188 C.2     1  UNL1        0.1468
      8 F         137.6474  138.8101  167.1373 F       1  UNL1       -0.2036
      9 C         139.2225  140.0519  168.7885 C.2     1  UNL1        0.0857
     10 CL        138.2014  139.9002  169.8767 Cl      1  UNL1       -0.0799
     11 C         140.5207  140.7486  169.0701 C.2     1  UNL1        0.0275
     12 C         140.7977  141.2937  170.4398 C.2     1  UNL1        0.0433
     13 C         142.0959  141.9904  170.7214 C.2     1  UNL1        0.1897
     14 O         142.3729  142.5355  172.0912 O.2     1  UNL1       -0.5018
     15 H         141.7350  142.4407  172.7709 H       1  UNL1        0.2924
@<TRIPOS>BOND
     1     1     2    2
     2     2     3    1
     3     3     4    2
     4     4     5    1
     5     5     6    1
     6     6     7    2
     7     7     8    1
     8     7     9    1
     9     9    10    1
    10     9    11    2
    11    11    12    1
    12    12    13    2
    13    13    14    1
    14    13     2    1
    15    11     4    1
    16    14    15    1
@<TRIPOS>MOLECULE
*****
 15 16 0 0 0
SMALL
GASTEIGER

@<TRIPOS>ATOM
      1 O         141.0396  142.1240  171.7425 O.2     1  UNL1       -0.2647
      2 C         140.5979  141.6608  170.3859 C.2     1  UNL1        0.3026
      3 N         140.8200  142.5335  169.1863 N.am    1  UNL1       -0.1769
      4 C         140.3783  142.0703  167.8297 C.2     1  UNL1        0.0568
      5 C         140.6004  142.9430  166.6301 C.3     1  UNL1        0.0716
      6 C         140.1587  142.4798  165.2735 C.2     1  UNL1        0.0105
      7 C         139.4949  141.1438  165.1166 C.2     1  UNL1        0.1468
      8 F         139.0532  140.6806  163.7600 F       1  UNL1       -0.2036
      9 C         139.2728  140.2711  166.3162 C.2     1  UNL1        0.0857
     10 CL        138.6090  138.9352  166.1592 Cl      1  UNL1       -0.0799
     11 C         139.7145  140.7344  167.6727 C.2     1  UNL1        0.0275
     12 C         139.4924  139.8617  168.8723 C.2     1  UNL1        0.0433
     13 C         139.9341  140.3249  170.2289 C.2     1  UNL1        0.1897
     14 O         139.7120  139.4522  171.4285 O.2     1  UNL1       -0.5018
     15 H         139.2973  138.6177  171.3305 H       1  UNL1        0.2924
@<TRIPOS>BOND
     1     1     2    2
     2     2     3    1
     3     3     4    2
     4     4     5    1
     5     5     6    1
     6     6     7    2
     7     7     8    1
     8     7     9    1
     9     9    10    1
    10     9    11    2
    11    11    12    1
    12    12    13    2
    13    13    14    1
    14    13     2    1
    15    11     4    1
    16    14    15    1
@<TRIPOS>MOLECULE
*****
 15 16 0 0 0
SMALL
GASTEIGER

@<TRIPOS>ATOM
      1 O         140.4869  142.1325  172.2168 O.2     1  UNL1       -0.2647
      2 C         140.8832  141.9577  170.7807 C.2     1  UNL1        0.3026
      3 N         141.5356  140.6836  170.3324 N.am    1  UNL1       -0.1769
      4 C         141.9319  140.5088  168.8963 C.2     1  UNL1        0.0568
      5 C         142.5842  139.2346  168.4480 C.3     1  UNL1        0.0716
      6 C         142.9805  139.0598  167.0119 C.2     1  UNL1        0.0105
      7 C         142.7245  140.1592  166.0241 C.2     1  UNL1        0.1468
      8 F         143.1208  139.9845  164.5880 F       1  UNL1       -0.2036
      9 C         142.0721  141.4334  166.4724 C.2     1  UNL1        0.0857
     10 CL        141.8161  142.5327  165.4845 Cl      1  UNL1       -0.0799
     11 C         141.6758  141.6081  167.9085 C.2     1  UNL1        0.0275
     12 C         141.0235  142.8823  168.3568 C.2     1  UNL1        0.0433
     13 C         140.6272  143.0570  169.7929 C.2     1  UNL1        0.1897
     14 O         139.9748  144.3312  170.2411 O.2     1  UNL1       -0.5018
     15 H         139.8148  145.0180  169.6241 H       1  UNL1        0.2924
@<TRIPOS>BOND
     1     1     2    2
     2     2     3    1
     3     3     4    2
     4     4     5    1
     5     5     6    1
     6     6     7    2
     7     7     8    1
     8     7     9    1
     9     9    10    1
    10     9    11    2
    11    11    12    1
    12    12    13    2
    13    13    14    1
    14    13     2    1
    15    11     4    1
    16    14    15    1
@<TRIPOS>MOLECULE
*****
 15 16 0 0 0
SMALL
GASTEIGER

@<TRIPOS>ATOM
      1 O         140.6940  140.9720  171.8497 O.2     1  UNL1       -0.2647
      2 C         140.4693  141.1653  170.3793 C.2     1  UNL1        0.3026
      3 N         139.7200  140.1310  169.5928 N.am    1  UNL1       -0.1769
      4 C         139.4953  140.3243  168.1223 C.2     1  UNL1        0.0568
      5 C         138.7459  139.2899  167.3358 C.3     1  UNL1        0.0716
      6 C         138.5212  139.4833  165.8654 C.2     1  UNL1        0.0105
      7 C         139.0459  140.7110  165.1815 C.2     1  UNL1        0.1468
      8 F         138.8211  140.9043  163.7111 F       1  UNL1       -0.2036
      9 C         139.7952  141.7453  165.9681 C.2     1  UNL1        0.0857
     10 CL        140.3197  142.9729  165.2842 Cl      1  UNL1       -0.0799
     11 C         140.0199  141.5519  167.4385 C.2     1  UNL1        0.0275
     12 C         140.7692  142.5862  168.2251 C.2     1  UNL1        0.0433
     13 C         140.9939  142.3929  169.6955 C.2     1  UNL1        0.1897
     14 O         141.7432  143.4273  170.4820 O.2     1  UNL1       -0.5018
     15 H         142.0709  144.1942  170.0548 H       1  UNL1        0.2924
@<TRIPOS>BOND
     1     1     2    2
     2     2     3    1
     3     3     4    2
     4     4     5    1
     5     5     6    1
     6     6     7    2
     7     7     8    1
     8     7     9    1
     9     9    10    1
    10     9    11    2
    11    11    12    1
    12    12    13    2
    13    13    14    1
    14    13     2    1
    15    11     4    1
    16    14    15    1
@<TRIPOS>MOLECULE
*****
 15 16 0 0 0
SMALL
GASTEIGER

@<TRIPOS>ATOM
      1 O         140.7214  140.8580  171.8155 O.2     1  UNL1       -0.2647
      2 C         141.0631  140.4285  170.4196 C.2     1  UNL1        0.3026
      3 N         140.0479  140.5636  169.3236 N.am    1  UNL1       -0.1769
      4 C         140.3896  140.1340  167.9277 C.2     1  UNL1        0.0568
      5 C         139.3743  140.2691  166.8317 C.3     1  UNL1        0.0716
      6 C         139.7160  139.8395  165.4357 C.2     1  UNL1        0.0105
      7 C         141.0730  139.2749  165.1357 C.2     1  UNL1        0.1468
      8 F         141.4147  138.8453  163.7397 F       1  UNL1       -0.2036
      9 C         142.0881  139.1398  166.2317 C.2     1  UNL1        0.0857
     10 CL        143.4450  138.5752  165.9316 Cl      1  UNL1       -0.0799
     11 C         141.7465  139.5694  167.6276 C.2     1  UNL1        0.0275
     12 C         142.7616  139.4343  168.7236 C.2     1  UNL1        0.0433
     13 C         142.4199  139.8639  170.1195 C.2     1  UNL1        0.1897
     14 O         143.4352  139.7288  171.2155 O.2     1  UNL1       -0.5018
     15 H         144.2828  139.3761  171.0281 H       1  UNL1        0.2924
@<TRIPOS>BOND
     1     1     2    2
     2     2     3    1
     3     3     4    2
     4     4     5    1
     5     5     6    1
     6     6     7    2
     7     7     8    1
     8     7     9    1
     9     9    10    1
    10     9    11    2
    11    11    12    1
    12    12    13    2
    13    13    14    1
    14    13     2    1
    15    11     4    1
    16    14    15    1
@<TRIPOS>MOLECULE
*****
 15 16 0 0 0
SMALL
GASTEIGER

@<TRIPOS>ATOM
      1 O         139.1665  146.5421  161.2551 O.2     1  UNL1       -0.2647
      2 C         139.7444  145.6029  162.2721 C.2     1  UNL1        0.3026
      3 N         141.2151  145.6279  162.5656 N.am    1  UNL1       -0.1769
      4 C         141.7930  144.6888  163.5826 C.2     1  UNL1        0.0568
      5 C         143.2638  144.7137  163.8761 C.3     1  UNL1        0.0716
      6 C         143.8417  143.7746  164.8930 C.2     1  UNL1        0.0105
      7 C         142.9487  142.8105  165.6164 C.2     1  UNL1        0.1468
      8 F         143.5265  141.8714  166.6334 F       1  UNL1       -0.2036
      9 C         141.4779  142.7856  165.3229 C.2     1  UNL1        0.0857
     10 CL        140.5850  141.8216  166.0463 Cl      1  UNL1       -0.0799
     11 C         140.9001  143.7247  164.3059 C.2     1  UNL1        0.0275
     12 C         139.4293  143.6998  164.0124 C.2     1  UNL1        0.0433
     13 C         138.8515  144.6389  162.9954 C.2     1  UNL1        0.1897
     14 O         137.3806  144.6140  162.7019 O.2     1  UNL1       -0.5018
     15 H         136.8229  144.0118  163.1538 H       1  UNL1        0.2924
@<TRIPOS>BOND
     1     1     2    2
     2     2     3    1
     3     3     4    2
     4     4     5    1
     5     5     6    1
     6     6     7    2
     7     7     8    1
     8     7     9    1
     9     9    10    1
    10     9    11    2
    11    11    12    1
    12    12    13    2
    13    13    14    1
    14    13     2    1
    15    11     4    1
    16    14    15    1
@<TRIPOS>MOLECULE
*****
 15 16 0 0 0
SMALL
GASTEIGER

@<TRIPOS>ATOM
      1 O         138.4152  143.1778  159.7845 O.2     1  UNL1       -0.2647
      2 C         138.4304  142.2314  160.9481 C.2     1  UNL1        0.3026
      3 N         138.9188  140.8251  160.7647 N.am    1  UNL1       -0.1769
      4 C         138.9341  139.8786  161.9283 C.2     1  UNL1        0.0568
      5 C         139.4225  138.4722  161.7448 C.3     1  UNL1        0.0716
      6 C         139.4378  137.5258  162.9085 C.2     1  UNL1        0.0105
      7 C         138.9647  137.9858  164.2556 C.2     1  UNL1        0.1468
      8 F         138.9799  137.0393  165.4192 F       1  UNL1       -0.2036
      9 C         138.4763  139.3921  164.4390 C.2     1  UNL1        0.0857
     10 CL        138.0032  139.8520  165.7861 Cl      1  UNL1       -0.0799
     11 C         138.4610  140.3385  163.2754 C.2     1  UNL1        0.0275
     12 C         137.9726  141.7449  163.4588 C.2     1  UNL1        0.0433
     13 C         137.9574  142.6913  162.2952 C.2     1  UNL1        0.1897
     14 O         137.4690  144.0977  162.4787 O.2     1  UNL1       -0.5018
     15 H         137.1734  144.3850  163.3202 H       1  UNL1        0.2924
@<TRIPOS>BOND
     1     1     2    2
     2     2     3    1
     3     3     4    2
     4     4     5    1
     5     5     6    1
     6     6     7    2
     7     7     8    1
     8     7     9    1
     9     9    10    1
    10     9    11    2
    11    11    12    1
    12    12    13    2
    13    13    14    1
    14    13     2    1
    15    11     4    1
    16    14    15    1
@<TRIPOS>MOLECULE
*****
 15 16 0 0 0
SMALL
GASTEIGER

@<TRIPOS>ATOM
      1 O         137.9574  143.8053  162.0028 O.2     1  UNL1       -0.2647
      2 C         138.4917  143.2441  163.2871 C.2     1  UNL1        0.3026
      3 N         138.1081  141.8594  163.7176 N.am    1  UNL1       -0.1769
      4 C         138.6425  141.2982  165.0019 C.2     1  UNL1        0.0568
      5 C         138.2588  139.9134  165.4324 C.3     1  UNL1        0.0716
      6 C         138.7932  139.3522  166.7168 C.2     1  UNL1        0.0105
      7 C         139.7111  140.1758  167.5707 C.2     1  UNL1        0.1468
      8 F         140.2455  139.6147  168.8550 F       1  UNL1       -0.2036
      9 C         140.0947  141.5606  167.1402 C.2     1  UNL1        0.0857
     10 CL        141.0126  142.3841  167.9940 Cl      1  UNL1       -0.0799
     11 C         139.5604  142.1217  165.8558 C.2     1  UNL1        0.0275
     12 C         139.9440  143.5065  165.4253 C.2     1  UNL1        0.0433
     13 C         139.4096  144.0676  164.1410 C.2     1  UNL1        0.1897
     14 O         139.7933  145.4524  163.7105 O.2     1  UNL1       -0.5018
     15 H         140.3667  145.9669  164.2439 H       1  UNL1        0.2924
@<TRIPOS>BOND
     1     1     2    2
     2     2     3    1
     3     3     4    2
     4     4     5    1
     5     5     6    1
     6     6     7    2
     7     7     8    1
     8     7     9    1
     9     9    10    1
    10     9    11    2
    11    11    12    1
    12    12    13    2
    13    13    14    1
    14    13     2    1
    15    11     4    1
    16    14    15    1
@<TRIPOS>MOLECULE
*****
 15 16 0 0 0
SMALL
GASTEIGER

@<TRIPOS>ATOM
      1 O         138.6394  145.1299  165.2202 O.2     1  UNL1       -0.2647
      2 C         138.5315  143.7457  164.6523 C.2     1  UNL1        0.3026
      3 N         139.0413  142.5721  165.4351 N.am    1  UNL1       -0.1769
      4 C         138.9334  141.1880  164.8673 C.2     1  UNL1        0.0568
      5 C         139.4433  140.0143  165.6502 C.3     1  UNL1        0.0716
      6 C         139.3354  138.6302  165.0824 C.2     1  UNL1        0.0105
      7 C         138.7177  138.4196  163.7317 C.2     1  UNL1        0.1468
      8 F         138.6099  137.0354  163.1639 F       1  UNL1       -0.2036
      9 C         138.2079  139.5932  162.9489 C.2     1  UNL1        0.0857
     10 CL        137.5903  139.3826  161.5983 Cl      1  UNL1       -0.0799
     11 C         138.3158  140.9774  163.5167 C.2     1  UNL1        0.0275
     12 C         137.8060  142.1509  162.7340 C.2     1  UNL1        0.0433
     13 C         137.9139  143.5351  163.3018 C.2     1  UNL1        0.1897
     14 O         137.4040  144.7087  162.5189 O.2     1  UNL1       -0.5018
     15 H         137.0182  144.5772  161.6752 H       1  UNL1        0.2924
@<TRIPOS>BOND
     1     1     2    2
     2     2     3    1
     3     3     4    2
     4     4     5    1
     5     5     6    1
     6     6     7    2
     7     7     8    1
     8     7     9    1
     9     9    10    1
    10     9    11    2
    11    11    12    1
    12    12    13    2
    13    13    14    1
    14    13     2    1
    15    11     4    1
    16    14    15    1
