@<TRIPOS>MOLECULE
*****
 30 33 0 0 0
SMALL
GASTEIGER

@<TRIPOS>ATOM
      1 C         140.9991  141.6525  165.4007 C.ar    1  UNL1        0.0906
      2 C         140.9436  142.1257  166.8230 C.ar    1  UNL1        0.1496
      3 O         140.0429  143.3239  166.8780 O.2     1  UNL1       -0.4534
      4 C         139.5417  143.5912  165.4897 C.ar    1  UNL1        0.1454
      5 C         138.6235  144.6417  164.9390 C.ar    1  UNL1        0.0406
      6 C         138.2963  144.6593  163.4753 C.ar    1  UNL1        0.0395
      7 C         138.8873  143.6262  162.5623 C.ar    1  UNL1        0.1311
      8 O         138.5600  143.6438  161.0984 O.3     1  UNL1       -0.5058
      9 C         139.8054  142.5757  163.1130 C.ar    1  UNL1        0.0308
     10 C         140.1326  142.5582  164.5767 C.ar    1  UNL1        0.0421
     11 H         137.9864  144.3000  160.7544 H       1  UNL1        0.2922
     12 C         141.6627  141.5090  167.9861 C.ar    1  UNL1        0.0349
     13 C         142.7762  142.2544  168.6602 C.ar    1  UNL1        0.0061
     14 C         143.4952  141.6378  169.8232 C.ar    1  UNL1        0.0367
     15 C         143.1007  140.2757  170.3122 C.ar    1  UNL1        0.1337
     16 O         143.8198  139.6591  171.4753 O.3     1  UNL1       -0.5055
     17 C         141.9872  139.5303  169.6381 C.ar    1  UNL1        0.0367
     18 C         141.2682  140.1470  168.4751 C.ar    1  UNL1        0.0061
     19 H         144.5153  140.1247  171.8964 H       1  UNL1        0.2922
     20 C         141.9085  137.9656  164.2472 C.3     1  UNL1        0.1109
     21 N         141.1243  139.1386  164.7562 N.am    1  UNL1       -0.2991
     22 C         141.7833  140.4794  164.8917 C.2     1  UNL1        0.2490
     23 O         143.2262  140.6470  164.5183 O.2     1  UNL1       -0.2700
     24 H         140.1772  139.0286  165.0013 H       1  UNL1        0.1498
     25 C         140.3963  141.5426  162.1999 C.3     1  UNL1        0.1023
     26 N         139.6854  140.2400  161.9815 N.3     1  UNL1       -0.2689
     27 C         140.1850  139.0902  161.1578 C.3     1  UNL1        0.0724
     28 C         139.1584  137.9980  161.2156 C.3     1  UNL1        0.0188
     29 C         138.0244  138.4728  162.0751 C.3     1  UNL1        0.0188
     30 C         138.3501  139.8584  162.5484 C.3     1  UNL1        0.0724
@<TRIPOS>BOND
     1    20    21    1
     2    21    22   am
     3    22    23    2
     4    22     1    1
     5     1     2   ar
     6     2    12    1
     7    12    13   ar
     8    13    14   ar
     9    14    15   ar
    10    15    16    1
    11    15    17   ar
    12    17    18   ar
    13     2     3   ar
    14     3     4   ar
    15     4     5   ar
    16     5     6   ar
    17     6     7   ar
    18     7     8    1
    19     7     9   ar
    20     9    25    1
    21    25    26    1
    22    26    27    1
    23    27    28    1
    24    28    29    1
    25    29    30    1
    26     9    10   ar
    27    10     1   ar
    28    18    12   ar
    29    10     4   ar
    30    30    26    1
    31    21    24    1
    32    16    19    1
    33     8    11    1
@<TRIPOS>MOLECULE
*****
 30 33 0 0 0
SMALL
GASTEIGER

@<TRIPOS>ATOM
      1 C         142.2404  142.9741  165.3246 C.ar    1  UNL1        0.0906
      2 C         141.4737  142.6094  166.5612 C.ar    1  UNL1        0.1496
      3 O         140.0898  143.1733  166.4317 O.2     1  UNL1       -0.4534
      4 C         140.0012  143.8866  165.1151 C.ar    1  UNL1        0.1454
      5 C         138.8820  144.6323  164.4509 C.ar    1  UNL1        0.0406
      6 C         139.0919  145.2549  163.1025 C.ar    1  UNL1        0.0395
      7 C         140.4211  145.1318  162.4183 C.ar    1  UNL1        0.1311
      8 O         140.6310  145.7545  161.0698 O.3     1  UNL1       -0.5058
      9 C         141.5403  144.3861  163.0825 C.ar    1  UNL1        0.0308
     10 C         141.3304  143.7635  164.4309 C.ar    1  UNL1        0.0421
     11 H         139.9318  146.2203  160.6549 H       1  UNL1        0.2922
     12 C         141.9987  141.8193  167.7232 C.ar    1  UNL1        0.0349
     13 C         141.6019  140.3830  167.8941 C.ar    1  UNL1        0.0061
     14 C         142.1269  139.5929  169.0561 C.ar    1  UNL1        0.0367
     15 C         143.0487  140.2393  170.0472 C.ar    1  UNL1        0.1337
     16 O         143.5737  139.4493  171.2092 O.3     1  UNL1       -0.5055
     17 C         143.4455  141.6757  169.8763 C.ar    1  UNL1        0.0367
     18 C         142.9205  142.4657  168.7143 C.ar    1  UNL1        0.0061
     19 H         143.3258  138.5520  171.3159 H       1  UNL1        0.2922
     20 C         145.4080  141.0079  163.9642 C.3     1  UNL1        0.1109
     21 N         143.9817  141.3691  164.2558 N.am    1  UNL1       -0.2991
     22 C         143.6668  142.6130  165.0330 C.2     1  UNL1        0.2490
     23 O         144.7783  143.4955  165.5183 O.2     1  UNL1       -0.2700
     24 H         143.2522  140.7898  163.9372 H       1  UNL1        0.1498
     25 C         142.8695  144.2630  162.3983 C.3     1  UNL1        0.1023
     26 N         143.1542  143.0811  161.5197 N.3     1  UNL1       -0.2689
     27 C         142.1859  141.9912  161.1669 C.3     1  UNL1        0.0724
     28 C         142.8904  141.0180  160.2688 C.3     1  UNL1        0.0188
     29 C         144.2942  141.5065  160.0665 C.3     1  UNL1        0.0188
     30 C         144.4572  142.7815  160.8396 C.3     1  UNL1        0.0724
@<TRIPOS>BOND
     1    20    21    1
     2    21    22   am
     3    22    23    2
     4    22     1    1
     5     1     2   ar
     6     2    12    1
     7    12    13   ar
     8    13    14   ar
     9    14    15   ar
    10    15    16    1
    11    15    17   ar
    12    17    18   ar
    13     2     3   ar
    14     3     4   ar
    15     4     5   ar
    16     5     6   ar
    17     6     7   ar
    18     7     8    1
    19     7     9   ar
    20     9    25    1
    21    25    26    1
    22    26    27    1
    23    27    28    1
    24    28    29    1
    25    29    30    1
    26     9    10   ar
    27    10     1   ar
    28    18    12   ar
    29    10     4   ar
    30    30    26    1
    31    21    24    1
    32    16    19    1
    33     8    11    1
@<TRIPOS>MOLECULE
*****
 30 33 0 0 0
SMALL
GASTEIGER

@<TRIPOS>ATOM
      1 C         140.1241  141.1700  165.7730 C.ar    1  UNL1        0.0906
      2 C         140.6367  141.9277  166.9617 C.ar    1  UNL1        0.1496
      3 O         140.2343  143.3641  166.8046 O.2     1  UNL1       -0.4534
      4 C         139.4730  143.4942  165.5187 C.ar    1  UNL1        0.1454
      5 C         138.8330  144.6723  164.8460 C.ar    1  UNL1        0.0406
      6 C         138.1249  144.4943  163.5358 C.ar    1  UNL1        0.0395
      7 C         138.0567  143.1382  162.8982 C.ar    1  UNL1        0.1311
      8 O         137.3486  142.9603  161.5879 O.3     1  UNL1       -0.5058
      9 C         138.6968  141.9602  163.5709 C.ar    1  UNL1        0.0308
     10 C         139.4049  142.1382  164.8811 C.ar    1  UNL1        0.0421
     11 H         136.9488  143.6962  161.1677 H       1  UNL1        0.2922
     12 C         141.4151  141.3503  168.1066 C.ar    1  UNL1        0.0349
     13 C         142.6353  142.0581  168.6166 C.ar    1  UNL1        0.0061
     14 C         143.4137  141.4807  169.7615 C.ar    1  UNL1        0.0367
     15 C         142.9719  140.1955  170.3964 C.ar    1  UNL1        0.1337
     16 O         143.7502  139.6181  171.5413 O.3     1  UNL1       -0.5055
     17 C         141.7517  139.4877  169.8864 C.ar    1  UNL1        0.0367
     18 C         140.9733  140.0651  168.7415 C.ar    1  UNL1        0.0061
     19 H         144.5125  140.0602  171.8599 H       1  UNL1        0.2922
     20 C         141.7119  137.7336  164.5810 C.3     1  UNL1        0.1109
     21 N         141.5362  139.2017  164.8337 N.am    1  UNL1       -0.2991
     22 C         140.2999  139.7019  165.5204 C.2     1  UNL1        0.2490
     23 O         139.2394  138.7340  165.9544 O.2     1  UNL1       -0.2700
     24 H         142.2322  139.8370  164.5488 H       1  UNL1        0.1498
     25 C         138.6286  140.6041  162.9333 C.3     1  UNL1        0.1023
     26 N         139.7784  140.1038  162.1101 N.3     1  UNL1       -0.2689
     27 C         140.9976  140.8899  161.7286 C.3     1  UNL1        0.0724
     28 C         141.8837  140.0014  160.9066 C.3     1  UNL1        0.0188
     29 C         141.2120  138.6661  160.7801 C.3     1  UNL1        0.0188
     30 C         139.9109  138.7294  161.5239 C.3     1  UNL1        0.0724
@<TRIPOS>BOND
     1    20    21    1
     2    21    22   am
     3    22    23    2
     4    22     1    1
     5     1     2   ar
     6     2    12    1
     7    12    13   ar
     8    13    14   ar
     9    14    15   ar
    10    15    16    1
    11    15    17   ar
    12    17    18   ar
    13     2     3   ar
    14     3     4   ar
    15     4     5   ar
    16     5     6   ar
    17     6     7   ar
    18     7     8    1
    19     7     9   ar
    20     9    25    1
    21    25    26    1
    22    26    27    1
    23    27    28    1
    24    28    29    1
    25    29    30    1
    26     9    10   ar
    27    10     1   ar
    28    18    12   ar
    29    10     4   ar
    30    30    26    1
    31    21    24    1
    32    16    19    1
    33     8    11    1
@<TRIPOS>MOLECULE
*****
 30 33 0 0 0
SMALL
GASTEIGER

@<TRIPOS>ATOM
      1 C         141.4836  142.7796  165.2071 C.ar    1  UNL1        0.0906
      2 C         140.3723  142.8889  166.2087 C.ar    1  UNL1        0.1496
      3 O         139.3419  143.8289  165.6570 O.2     1  UNL1       -0.4534
      4 C         139.8163  144.3007  164.3144 C.ar    1  UNL1        0.1454
      5 C         139.2140  145.2370  163.3092 C.ar    1  UNL1        0.0406
      6 C         139.9353  145.5247  162.0259 C.ar    1  UNL1        0.0395
      7 C         141.2590  144.8762  161.7479 C.ar    1  UNL1        0.1311
      8 O         141.9803  145.1640  160.4646 O.3     1  UNL1       -0.5058
      9 C         141.8613  143.9399  162.7531 C.ar    1  UNL1        0.0308
     10 C         141.1399  143.6521  164.0364 C.ar    1  UNL1        0.0421
     11 H         141.6041  145.7488  159.8366 H       1  UNL1        0.2922
     12 C         140.3036  142.1822  167.5300 C.ar    1  UNL1        0.0349
     13 C         140.6119  142.9262  168.7954 C.ar    1  UNL1        0.0061
     14 C         140.5432  142.2195  170.1167 C.ar    1  UNL1        0.0367
     15 C         140.1661  140.7687  170.1726 C.ar    1  UNL1        0.1337
     16 O         140.0974  140.0620  171.4939 O.3     1  UNL1       -0.5055
     17 C         139.8578  140.0247  168.9072 C.ar    1  UNL1        0.0367
     18 C         139.9265  140.7314  167.5859 C.ar    1  UNL1        0.0061
     19 H         140.2900  140.5268  172.2844 H       1  UNL1        0.2922
     20 C         143.9345  139.6597  165.1098 C.3     1  UNL1        0.1109
     21 N         142.6968  140.4948  164.9660 N.am    1  UNL1       -0.2991
     22 C         142.7213  141.9445  165.3510 C.2     1  UNL1        0.2490
     23 O         143.9833  142.5587  165.8798 O.2     1  UNL1       -0.2700
     24 H         141.8685  140.0916  164.6189 H       1  UNL1        0.1498
     25 C         143.1850  143.2914  162.4751 C.3     1  UNL1        0.1023
     26 N         143.2370  141.8829  161.9618 N.3     1  UNL1       -0.2689
     27 C         142.0621  141.0613  161.5207 C.3     1  UNL1        0.0724
     28 C         142.5721  139.7193  161.0857 C.3     1  UNL1        0.0188
     29 C         144.0622  139.7116  161.2579 C.3     1  UNL1        0.0188
     30 C         144.4731  141.0488  161.7994 C.3     1  UNL1        0.0724
@<TRIPOS>BOND
     1    20    21    1
     2    21    22   am
     3    22    23    2
     4    22     1    1
     5     1     2   ar
     6     2    12    1
     7    12    13   ar
     8    13    14   ar
     9    14    15   ar
    10    15    16    1
    11    15    17   ar
    12    17    18   ar
    13     2     3   ar
    14     3     4   ar
    15     4     5   ar
    16     5     6   ar
    17     6     7   ar
    18     7     8    1
    19     7     9   ar
    20     9    25    1
    21    25    26    1
    22    26    27    1
    23    27    28    1
    24    28    29    1
    25    29    30    1
    26     9    10   ar
    27    10     1   ar
    28    18    12   ar
    29    10     4   ar
    30    30    26    1
    31    21    24    1
    32    16    19    1
    33     8    11    1
@<TRIPOS>MOLECULE
*****
 30 33 0 0 0
SMALL
GASTEIGER

@<TRIPOS>ATOM
      1 C         140.9949  141.1984  165.4397 C.ar    1  UNL1        0.0906
      2 C         140.9390  140.8439  166.8961 C.ar    1  UNL1        0.1496
      3 O         140.1912  139.5504  167.0298 O.2     1  UNL1       -0.4534
      4 C         139.7850  139.1056  165.6561 C.ar    1  UNL1        0.1454
      5 C         139.0270  137.9047  165.1732 C.ar    1  UNL1        0.0406
      6 C         138.7656  137.7224  163.7074 C.ar    1  UNL1        0.0395
      7 C         139.2623  138.7409  162.7246 C.ar    1  UNL1        0.1311
      8 O         139.0010  138.5586  161.2588 O.3     1  UNL1       -0.5058
      9 C         140.0203  139.9418  163.2076 C.ar    1  UNL1        0.0308
     10 C         140.2817  140.1242  164.6733 C.ar    1  UNL1        0.0421
     11 H         138.5275  137.8084  160.9572 H       1  UNL1        0.2922
     12 C         141.5275  141.6425  168.0212 C.ar    1  UNL1        0.0349
     13 C         140.6773  142.6287  168.7658 C.ar    1  UNL1        0.0061
     14 C         141.2658  143.4273  169.8909 C.ar    1  UNL1        0.0367
     15 C         142.7046  143.2397  170.2714 C.ar    1  UNL1        0.1337
     16 O         143.2931  144.0383  171.3965 O.3     1  UNL1       -0.5055
     17 C         143.5548  142.2535  169.5268 C.ar    1  UNL1        0.0367
     18 C         142.9662  141.4549  168.4017 C.ar    1  UNL1        0.0061
     19 H         142.7620  144.6544  171.8616 H       1  UNL1        0.2922
     20 C         143.7500  143.5857  163.8710 C.3     1  UNL1        0.1109
     21 N         143.0957  142.3703  164.4581 N.am    1  UNL1       -0.2991
     22 C         141.6491  142.4139  164.8526 C.2     1  UNL1        0.2490
     23 O         140.8569  143.6729  164.6601 O.2     1  UNL1       -0.2700
     24 H         143.6157  141.5439  164.5844 H       1  UNL1        0.1498
     25 C         140.5170  140.9603  162.2248 C.3     1  UNL1        0.1023
     26 N         141.9275  140.8894  161.7193 N.3     1  UNL1       -0.2689
     27 C         142.9213  139.8089  162.0277 C.3     1  UNL1        0.0724
     28 C         144.1999  140.1382  161.3157 C.3     1  UNL1        0.0188
     29 C         143.9963  141.4222  160.5673 C.3     1  UNL1        0.0188
     30 C         142.5919  141.8864  160.8168 C.3     1  UNL1        0.0724
@<TRIPOS>BOND
     1    20    21    1
     2    21    22   am
     3    22    23    2
     4    22     1    1
     5     1     2   ar
     6     2    12    1
     7    12    13   ar
     8    13    14   ar
     9    14    15   ar
    10    15    16    1
    11    15    17   ar
    12    17    18   ar
    13     2     3   ar
    14     3     4   ar
    15     4     5   ar
    16     5     6   ar
    17     6     7   ar
    18     7     8    1
    19     7     9   ar
    20     9    25    1
    21    25    26    1
    22    26    27    1
    23    27    28    1
    24    28    29    1
    25    29    30    1
    26     9    10   ar
    27    10     1   ar
    28    18    12   ar
    29    10     4   ar
    30    30    26    1
    31    21    24    1
    32    16    19    1
    33     8    11    1
@<TRIPOS>MOLECULE
*****
 30 33 0 0 0
SMALL
GASTEIGER

@<TRIPOS>ATOM
      1 C         140.6281  140.5668  165.1114 C.ar    1  UNL1        0.0906
      2 C         140.4306  139.6435  166.2770 C.ar    1  UNL1        0.1496
      3 O         139.7424  138.4077  165.7778 O.2     1  UNL1       -0.4534
      4 C         139.5146  138.5673  164.3038 C.ar    1  UNL1        0.1454
      5 C         138.8794  137.6699  163.2834 C.ar    1  UNL1        0.0406
      6 C         138.7917  138.1069  161.8512 C.ar    1  UNL1        0.0395
      7 C         139.3391  139.4413  161.4394 C.ar    1  UNL1        0.1311
      8 O         139.2513  139.8784  160.0071 O.3     1  UNL1       -0.5058
      9 C         139.9743  140.3387  162.4598 C.ar    1  UNL1        0.0308
     10 C         140.0620  139.9017  163.8920 C.ar    1  UNL1        0.0421
     11 H         138.8546  139.3178  159.3697 H       1  UNL1        0.2922
     12 C         140.8480  139.9093  167.6930 C.ar    1  UNL1        0.0349
     13 C         142.2981  139.8481  168.0715 C.ar    1  UNL1        0.0061
     14 C         142.7155  140.1139  169.4876 C.ar    1  UNL1        0.0367
     15 C         141.6828  140.4409  170.5251 C.ar    1  UNL1        0.1337
     16 O         142.1002  140.7067  171.9411 O.3     1  UNL1       -0.5055
     17 C         140.2326  140.5021  170.1465 C.ar    1  UNL1        0.0367
     18 C         139.8153  140.2363  168.7305 C.ar    1  UNL1        0.0061
     19 H         143.0060  140.6684  172.1775 H       1  UNL1        0.2922
     20 C         143.3596  143.4276  164.7861 C.3     1  UNL1        0.1109
     21 N         142.7100  142.0763  164.7403 N.am    1  UNL1       -0.2991
     22 C         141.2777  141.9181  165.1573 C.2     1  UNL1        0.2490
     23 O         140.4953  143.1111  165.6202 O.2     1  UNL1       -0.2700
     24 H         143.2236  141.2933  164.4365 H       1  UNL1        0.1498
     25 C         140.5217  141.6732  162.0479 C.3     1  UNL1        0.1023
     26 N         139.7489  142.9244  162.3432 N.3     1  UNL1       -0.2689
     27 C         138.3099  142.9940  162.7607 C.3     1  UNL1        0.0724
     28 C         137.9510  144.4384  162.9484 C.3     1  UNL1        0.0188
     29 C         139.1684  145.2614  162.6469 C.3     1  UNL1        0.0188
     30 C         140.2795  144.3257  162.2729 C.3     1  UNL1        0.0724
@<TRIPOS>BOND
     1    20    21    1
     2    21    22   am
     3    22    23    2
     4    22     1    1
     5     1     2   ar
     6     2    12    1
     7    12    13   ar
     8    13    14   ar
     9    14    15   ar
    10    15    16    1
    11    15    17   ar
    12    17    18   ar
    13     2     3   ar
    14     3     4   ar
    15     4     5   ar
    16     5     6   ar
    17     6     7   ar
    18     7     8    1
    19     7     9   ar
    20     9    25    1
    21    25    26    1
    22    26    27    1
    23    27    28    1
    24    28    29    1
    25    29    30    1
    26     9    10   ar
    27    10     1   ar
    28    18    12   ar
    29    10     4   ar
    30    30    26    1
    31    21    24    1
    32    16    19    1
    33     8    11    1
@<TRIPOS>MOLECULE
*****
 30 33 0 0 0
SMALL
GASTEIGER

@<TRIPOS>ATOM
      1 C         140.4590  141.3423  165.4265 C.ar    1  UNL1        0.0906
      2 C         140.5897  141.9453  166.7937 C.ar    1  UNL1        0.1496
      3 O         139.7940  143.2167  166.8174 O.2     1  UNL1       -0.4534
      4 C         139.1716  143.3994  165.4649 C.ar    1  UNL1        0.1454
      5 C         138.2837  144.4709  164.9051 C.ar    1  UNL1        0.0406
      6 C         137.8068  144.3839  163.4856 C.ar    1  UNL1        0.0395
      7 C         138.2179  143.2255  162.6259 C.ar    1  UNL1        0.1311
      8 O         137.7410  143.1386  161.2064 O.3     1  UNL1       -0.5058
      9 C         139.1058  142.1540  163.1857 C.ar    1  UNL1        0.0308
     10 C         139.5826  142.2409  164.6052 C.ar    1  UNL1        0.0421
     11 H         137.1863  143.8079  160.8567 H       1  UNL1        0.2922
     12 C         141.3776  141.3769  167.9365 C.ar    1  UNL1        0.0349
     13 C         142.5806  142.1076  168.4549 C.ar    1  UNL1        0.0061
     14 C         143.3685  141.5391  169.5977 C.ar    1  UNL1        0.0367
     15 C         142.9535  140.2399  170.2220 C.ar    1  UNL1        0.1337
     16 O         143.7415  139.6715  171.3648 O.3     1  UNL1       -0.5055
     17 C         141.7506  139.5092  169.7036 C.ar    1  UNL1        0.0367
     18 C         140.9626  140.0777  168.5608 C.ar    1  UNL1        0.0061
     19 H         144.4930  140.1280  171.6887 H       1  UNL1        0.2922
     20 C         141.0271  137.4792  164.7161 C.3     1  UNL1        0.1109
     21 N         140.3927  138.7567  165.1806 N.am    1  UNL1       -0.2991
     22 C         141.0934  140.0649  164.9620 C.2     1  UNL1        0.2490
     23 O         142.4285  140.0955  164.2789 O.2     1  UNL1       -0.2700
     24 H         139.5165  138.7365  165.6290 H       1  UNL1        0.1498
     25 C         139.5168  140.9955  162.3261 C.3     1  UNL1        0.1023
     26 N         140.1743  141.2414  161.0005 N.3     1  UNL1       -0.2689
     27 C         141.3433  142.1475  160.7507 C.3     1  UNL1        0.0724
     28 C         141.6697  142.0904  159.2876 C.3     1  UNL1        0.0188
     29 C         140.7024  141.1490  158.6333 C.3     1  UNL1        0.0188
     30 C         139.7782  140.6243  159.6918 C.3     1  UNL1        0.0724
@<TRIPOS>BOND
     1    20    21    1
     2    21    22   am
     3    22    23    2
     4    22     1    1
     5     1     2   ar
     6     2    12    1
     7    12    13   ar
     8    13    14   ar
     9    14    15   ar
    10    15    16    1
    11    15    17   ar
    12    17    18   ar
    13     2     3   ar
    14     3     4   ar
    15     4     5   ar
    16     5     6   ar
    17     6     7   ar
    18     7     8    1
    19     7     9   ar
    20     9    25    1
    21    25    26    1
    22    26    27    1
    23    27    28    1
    24    28    29    1
    25    29    30    1
    26     9    10   ar
    27    10     1   ar
    28    18    12   ar
    29    10     4   ar
    30    30    26    1
    31    21    24    1
    32    16    19    1
    33     8    11    1
@<TRIPOS>MOLECULE
*****
 30 33 0 0 0
SMALL
GASTEIGER

@<TRIPOS>ATOM
      1 C         140.3614  141.1333  163.4145 C.ar    1  UNL1        0.0906
      2 C         139.0835  140.9940  164.1875 C.ar    1  UNL1        0.1496
      3 O         138.3019  142.2637  164.0236 O.2     1  UNL1       -0.4534
      4 C         139.0968  143.1878  163.1493 C.ar    1  UNL1        0.1454
      5 C         138.8259  144.5751  162.6474 C.ar    1  UNL1        0.0406
      6 C         139.8280  145.2638  161.7690 C.ar    1  UNL1        0.0395
      7 C         141.1008  144.5651  161.3925 C.ar    1  UNL1        0.1311
      8 O         142.1029  145.2539  160.5141 O.3     1  UNL1       -0.5058
      9 C         141.3716  143.1778  161.8944 C.ar    1  UNL1        0.0308
     10 C         140.3696  142.4892  162.7728 C.ar    1  UNL1        0.0421
     11 H         141.9337  146.1205  160.2006 H       1  UNL1        0.2922
     12 C         138.6613  139.7954  164.9844 C.ar    1  UNL1        0.0349
     13 C         138.0807  139.9732  166.3560 C.ar    1  UNL1        0.0061
     14 C         137.6586  138.7746  167.1529 C.ar    1  UNL1        0.0367
     15 C         137.8170  137.3982  166.5783 C.ar    1  UNL1        0.1337
     16 O         137.3948  136.1996  167.3752 O.3     1  UNL1       -0.5055
     17 C         138.3976  137.2203  165.2067 C.ar    1  UNL1        0.0367
     18 C         138.8198  138.4189  164.4098 C.ar    1  UNL1        0.0061
     19 H         137.0321  136.3107  168.2320 H       1  UNL1        0.2922
     20 C         142.6220  138.2144  161.9584 C.3     1  UNL1        0.1109
     21 N         141.5419  139.2492  162.0702 N.am    1  UNL1       -0.2991
     22 C         141.4415  140.0985  163.3026 C.2     1  UNL1        0.2490
     23 O         142.4213  139.9128  164.4231 O.2     1  UNL1       -0.2700
     24 H         140.8988  139.3710  161.3347 H       1  UNL1        0.1498
     25 C         142.6445  142.4792  161.5180 C.3     1  UNL1        0.1023
     26 N         143.7545  142.3520  162.5187 N.3     1  UNL1       -0.2689
     27 C         143.8977  143.1472  163.7825 C.3     1  UNL1        0.0724
     28 C         145.1481  142.6940  164.4763 C.3     1  UNL1        0.0188
     29 C         145.7777  141.6186  163.6412 C.3     1  UNL1        0.0188
     30 C         144.9165  141.4073  162.4314 C.3     1  UNL1        0.0724
@<TRIPOS>BOND
     1    20    21    1
     2    21    22   am
     3    22    23    2
     4    22     1    1
     5     1     2   ar
     6     2    12    1
     7    12    13   ar
     8    13    14   ar
     9    14    15   ar
    10    15    16    1
    11    15    17   ar
    12    17    18   ar
    13     2     3   ar
    14     3     4   ar
    15     4     5   ar
    16     5     6   ar
    17     6     7   ar
    18     7     8    1
    19     7     9   ar
    20     9    25    1
    21    25    26    1
    22    26    27    1
    23    27    28    1
    24    28    29    1
    25    29    30    1
    26     9    10   ar
    27    10     1   ar
    28    18    12   ar
    29    10     4   ar
    30    30    26    1
    31    21    24    1
    32    16    19    1
    33     8    11    1
@<TRIPOS>MOLECULE
*****
 30 33 0 0 0
SMALL
GASTEIGER

@<TRIPOS>ATOM
      1 C         141.3270  142.0625  164.4588 C.ar    1  UNL1        0.0906
      2 C         140.4556  142.5784  165.5653 C.ar    1  UNL1        0.1496
      3 O         139.8907  143.8990  165.1329 O.2     1  UNL1       -0.4534
      4 C         140.4130  144.1992  163.7592 C.ar    1  UNL1        0.1454
      5 C         140.1950  145.3595  162.8339 C.ar    1  UNL1        0.0406
      6 C         140.8646  145.3846  161.4920 C.ar    1  UNL1        0.0395
      7 C         141.7523  144.2496  161.0753 C.ar    1  UNL1        0.1311
      8 O         142.4220  144.2748  159.7333 O.3     1  UNL1       -0.5058
      9 C         141.9704  143.0893  162.0006 C.ar    1  UNL1        0.0308
     10 C         141.3007  143.0641  163.3426 C.ar    1  UNL1        0.0421
     11 H         142.2858  144.9996  159.1553 H       1  UNL1        0.2922
     12 C         140.1949  141.8940  166.8744 C.ar    1  UNL1        0.0349
     13 C         139.5459  140.5419  166.8975 C.ar    1  UNL1        0.0061
     14 C         139.2852  139.8575  168.2066 C.ar    1  UNL1        0.0367
     15 C         139.6734  140.5252  169.4924 C.ar    1  UNL1        0.1337
     16 O         139.4127  139.8407  170.8015 O.3     1  UNL1       -0.5055
     17 C         140.3223  141.8773  169.4692 C.ar    1  UNL1        0.0367
     18 C         140.5831  142.5617  168.1602 C.ar    1  UNL1        0.0061
     19 H         139.0073  138.9961  170.8159 H       1  UNL1        0.2922
     20 C         144.3062  139.4702  164.8525 C.3     1  UNL1        0.1109
     21 N         143.5425  140.7612  164.8443 N.am    1  UNL1       -0.2991
     22 C         142.0907  140.7714  164.4670 C.2     1  UNL1        0.2490
     23 O         141.4027  139.4907  164.0980 O.2     1  UNL1       -0.2700
     24 H         143.9941  141.6018  165.0865 H       1  UNL1        0.1498
     25 C         142.8580  141.9542  161.5839 C.3     1  UNL1        0.1023
     26 N         142.2562  140.6897  161.0465 N.3     1  UNL1       -0.2689
     27 C         142.9739  139.3881  160.8445 C.3     1  UNL1        0.0724
     28 C         141.9923  138.3987  160.2899 C.3     1  UNL1        0.0188
     29 C         140.6679  139.0889  160.1491 C.3     1  UNL1        0.0188
     30 C         140.8310  140.5048  160.6167 C.3     1  UNL1        0.0724
@<TRIPOS>BOND
     1    20    21    1
     2    21    22   am
     3    22    23    2
     4    22     1    1
     5     1     2   ar
     6     2    12    1
     7    12    13   ar
     8    13    14   ar
     9    14    15   ar
    10    15    16    1
    11    15    17   ar
    12    17    18   ar
    13     2     3   ar
    14     3     4   ar
    15     4     5   ar
    16     5     6   ar
    17     6     7   ar
    18     7     8    1
    19     7     9   ar
    20     9    25    1
    21    25    26    1
    22    26    27    1
    23    27    28    1
    24    28    29    1
    25    29    30    1
    26     9    10   ar
    27    10     1   ar
    28    18    12   ar
    29    10     4   ar
    30    30    26    1
    31    21    24    1
    32    16    19    1
    33     8    11    1
