@<TRIPOS>MOLECULE
*****
 46 52 0 0 0
SMALL
GASTEIGER

@<TRIPOS>ATOM
      1 C         140.8135  142.1448  162.0796 C.3     1  UNL1        0.0235
      2 C         141.3124  142.9385  163.2507 C.3     1  UNL1        0.0257
      3 C         141.2956  142.3384  164.6253 C.3     1  UNL1        0.0940
      4 N         140.7799  140.9446  164.8289 N.am    1  UNL1       -0.2761
      5 C         140.7631  140.3445  166.2036 C.2     1  UNL1        0.2491
      6 O         140.2474  138.9507  166.4072 O.2     1  UNL1       -0.2699
      7 C         140.2810  140.1509  163.6579 C.3     1  UNL1        0.0940
      8 C         140.2978  140.7510  162.2833 C.3     1  UNL1        0.0257
      9 C         140.4498  141.7927  160.6676 C.ar    1  UNL1       -0.0226
     10 C         141.3052  140.8379  159.8887 C.ar    1  UNL1       -0.0043
     11 C         140.9416  140.4858  158.4766 C.ar    1  UNL1       -0.0003
     12 C         139.7225  141.0884  157.8436 C.ar    1  UNL1       -0.0000
     13 C         138.8671  142.0432  158.6226 C.ar    1  UNL1       -0.0003
     14 C         139.2309  142.3953  160.0346 C.ar    1  UNL1       -0.0043
     15 C         141.2620  141.1382  167.3745 C.ar    1  UNL1        0.0549
     16 C         142.7320  141.3851  167.5417 C.ar    1  UNL1        0.0046
     17 C         143.2308  142.1789  168.7127 C.ar    1  UNL1        0.0015
     18 C         142.2595  142.7257  169.7165 C.ar    1  UNL1        0.0199
     19 C         140.7895  142.4788  169.5493 C.ar    1  UNL1        0.1218
     20 C         140.2907  141.6851  168.3783 C.ar    1  UNL1        0.0244
     21 S         139.8183  143.0257  170.5531 S.O2    1  UNL1        0.0572
     22 N         138.8470  143.5725  171.5569 N.3     1  UNL1       -0.2035
     23 O         140.4105  144.3931  170.3811 O.2     1  UNL1       -0.1532
     24 O         139.2260  141.6582  170.7250 O.2     1  UNL1       -0.1532
     25 H         139.0065  144.5731  171.6742 H       1  UNL1        0.1442
     26 H         138.9799  143.0999  172.4510 H       1  UNL1        0.1442
     27 C         141.2029  143.4162  161.3856 C.3     1  UNL1        0.0215
     28 C         142.6452  143.8231  161.3190 C.3     1  UNL1        0.0723
     29 C         142.7352  143.8225  161.4476 C.3     1  UNL1        0.0893
     30 C         143.2454  142.4887  160.9882 C.3     1  UNL1        0.0386
     31 C         144.2697  141.7563  161.8033 C.3     1  UNL1        0.0594
     32 C         145.2446  141.4050  162.8877 C.3     1  UNL1        0.0174
     33 C         145.2469  142.5221  163.8887 C.3     1  UNL1        0.0174
     34 C         144.2735  143.5639  163.4229 C.3     1  UNL1        0.0594
     35 C         143.2494  144.4237  162.7219 C.3     1  UNL1        0.0386
     36 N         143.6694  143.0907  162.1340 N.3     1  UNL1       -0.2751
     37 C         140.6940  145.5697  162.6627 C.3     1  UNL1        0.0718
     38 C         140.6412  145.4602  161.1677 C.ar    1  UNL1        0.1207
     39 N         139.8456  145.9754  160.0051 N.ar    1  UNL1       -0.2309
     40 C         140.4236  145.3885  158.7514 C.ar    1  UNL1        0.0983
     41 C         140.0491  145.5401  157.3069 C.ar    1  UNL1        0.0206
     42 C         140.8273  144.8138  156.2502 C.ar    1  UNL1        0.0016
     43 C         141.9801  143.9359  156.6380 C.ar    1  UNL1        0.0016
     44 C         142.3546  143.7843  158.0825 C.ar    1  UNL1        0.0188
     45 C         141.5763  144.5106  159.1392 C.ar    1  UNL1        0.0785
     46 N         141.7108  144.5549  160.6325 N.ar    1  UNL1       -0.3167
@<TRIPOS>BOND
     1    37    38    1
     2    38    39   ar
     3    39    40   ar
     4    40    41   ar
     5    41    42   ar
     6    42    43   ar
     7    43    44   ar
     8    44    45   ar
     9    45    46   ar
    10    46    29    1
    11    29    30    1
    12    30    31    1
    13    31    32    1
    14    32    33    1
    15    33    34    1
    16    34    35    1
    17    34    36    1
    18    36    28    1
    19    28    27    1
    20    27     1    1
    21     1     9    1
    22     9    10   ar
    23    10    11   ar
    24    11    12   ar
    25    12    13   ar
    26    13    14   ar
    27     1     2    1
    28     2     3    1
    29     3     4    1
    30     4     5   am
    31     5     6    2
    32     5    15    1
    33    15    16   ar
    34    16    17   ar
    35    17    18   ar
    36    18    19   ar
    37    19    21    1
    38    21    22    1
    39    21    23    2
    40    21    24    2
    41    19    20   ar
    42     4     7    1
    43     7     8    1
    44    46    38   ar
    45    35    29    1
    46     8     1    1
    47    45    40   ar
    48    36    31    1
    49    14     9   ar
    50    20    15   ar
    51    22    25    1
    52    22    26    1
@<TRIPOS>MOLECULE
*****
 46 52 0 0 0
SMALL
GASTEIGER

@<TRIPOS>ATOM
      1 C         140.4482  141.4705  162.0574 C.3     1  UNL1        0.0235
      2 C         141.1472  142.0179  163.2664 C.3     1  UNL1        0.0257
      3 C         140.9844  141.3435  164.5964 C.3     1  UNL1        0.0940
      4 N         140.1226  140.1218  164.7174 N.am    1  UNL1       -0.2761
      5 C         139.9598  139.4475  166.0474 C.2     1  UNL1        0.2491
      6 O         139.0980  138.2258  166.1683 O.2     1  UNL1       -0.2699
      7 C         139.4236  139.5744  163.5084 C.3     1  UNL1        0.0940
      8 C         139.5863  140.2487  162.1785 C.3     1  UNL1        0.0257
      9 C         139.9936  141.3304  160.6348 C.ar    1  UNL1       -0.0226
     10 C         138.5808  141.6695  160.2621 C.ar    1  UNL1       -0.0043
     11 C         138.1262  141.5294  158.8394 C.ar    1  UNL1       -0.0003
     12 C         139.0845  141.0503  157.7896 C.ar    1  UNL1       -0.0000
     13 C         140.4973  140.7112  158.1624 C.ar    1  UNL1       -0.0003
     14 C         140.9518  140.8513  159.5851 C.ar    1  UNL1       -0.0043
     15 C         140.6589  139.9950  167.2563 C.ar    1  UNL1        0.0549
     16 C         142.0848  139.6199  167.5323 C.ar    1  UNL1        0.0046
     17 C         142.7837  140.1674  168.7413 C.ar    1  UNL1        0.0015
     18 C         142.0568  141.0900  169.6743 C.ar    1  UNL1        0.0199
     19 C         140.6310  141.4651  169.3983 C.ar    1  UNL1        0.1218
     20 C         139.9320  140.9176  168.1893 C.ar    1  UNL1        0.0244
     21 S         139.9041  142.3876  170.3313 S.O2    1  UNL1        0.0572
     22 N         139.1773  143.3102  171.2643 N.3     1  UNL1       -0.2035
     23 O         141.0270  143.3769  170.2278 O.2     1  UNL1       -0.1532
     24 O         138.7813  141.3984  170.4348 O.2     1  UNL1       -0.1532
     25 H         139.7323  144.1535  171.4095 H       1  UNL1        0.1442
     26 H         139.0296  142.8423  172.1585 H       1  UNL1        0.1442
     27 C         141.1521  142.6435  161.4424 C.3     1  UNL1        0.0215
     28 C         140.7598  144.0394  161.8266 C.3     1  UNL1        0.0723
     29 C         140.7411  144.0825  161.9764 C.3     1  UNL1        0.0893
     30 C         139.2737  143.8409  161.7803 C.3     1  UNL1        0.0386
     31 C         138.3183  144.0663  162.9146 C.3     1  UNL1        0.0594
     32 C         137.7629  144.4070  164.2657 C.3     1  UNL1        0.0174
     33 C         138.9057  144.8160  165.1470 C.3     1  UNL1        0.0174
     34 C         140.1675  144.7281  164.3406 C.3     1  UNL1        0.0594
     35 C         141.2531  144.5494  163.3067 C.3     1  UNL1        0.0386
     36 N         139.8045  144.2647  162.9608 N.3     1  UNL1       -0.2751
     37 C         143.5156  143.1755  162.3950 C.3     1  UNL1        0.0718
     38 C         143.1192  143.3983  160.9656 C.ar    1  UNL1        0.1207
     39 N         143.6987  143.3087  159.5850 N.ar    1  UNL1       -0.2309
     40 C         142.6342  143.7123  158.6083 C.ar    1  UNL1        0.0983
     41 C         142.6319  143.8149  157.1118 C.ar    1  UNL1        0.0206
     42 C         141.3920  144.2564  156.3923 C.ar    1  UNL1        0.0016
     43 C         140.1545  144.5954  157.1693 C.ar    1  UNL1        0.0016
     44 C         140.1569  144.4929  158.6657 C.ar    1  UNL1        0.0188
     45 C         141.3967  144.0513  159.3852 C.ar    1  UNL1        0.0785
     46 N         141.6964  143.8572  160.8421 N.ar    1  UNL1       -0.3167
@<TRIPOS>BOND
     1    37    38    1
     2    38    39   ar
     3    39    40   ar
     4    40    41   ar
     5    41    42   ar
     6    42    43   ar
     7    43    44   ar
     8    44    45   ar
     9    45    46   ar
    10    46    29    1
    11    29    30    1
    12    30    31    1
    13    31    32    1
    14    32    33    1
    15    33    34    1
    16    34    35    1
    17    34    36    1
    18    36    28    1
    19    28    27    1
    20    27     1    1
    21     1     9    1
    22     9    10   ar
    23    10    11   ar
    24    11    12   ar
    25    12    13   ar
    26    13    14   ar
    27     1     2    1
    28     2     3    1
    29     3     4    1
    30     4     5   am
    31     5     6    2
    32     5    15    1
    33    15    16   ar
    34    16    17   ar
    35    17    18   ar
    36    18    19   ar
    37    19    21    1
    38    21    22    1
    39    21    23    2
    40    21    24    2
    41    19    20   ar
    42     4     7    1
    43     7     8    1
    44    46    38   ar
    45    35    29    1
    46     8     1    1
    47    45    40   ar
    48    36    31    1
    49    14     9   ar
    50    20    15   ar
    51    22    25    1
    52    22    26    1
@<TRIPOS>MOLECULE
*****
 46 52 0 0 0
SMALL
GASTEIGER

@<TRIPOS>ATOM
      1 C         140.8968  141.1469  160.9942 C.3     1  UNL1        0.0235
      2 C         140.2776  140.0052  160.2438 C.3     1  UNL1        0.0257
      3 C         141.0336  139.3407  159.1316 C.3     1  UNL1        0.0940
      4 N         142.4088  139.8180  158.7697 N.am    1  UNL1       -0.2761
      5 C         143.1648  139.1536  157.6575 C.2     1  UNL1        0.2491
      6 O         144.5401  139.6309  157.2956 O.2     1  UNL1       -0.2699
      7 C         143.0280  140.9598  159.5201 C.3     1  UNL1        0.0940
      8 C         142.2721  141.6242  160.6323 C.3     1  UNL1        0.0257
      9 C         141.0579  142.2568  161.9904 C.ar    1  UNL1       -0.0226
     10 C         140.9993  143.6855  161.5374 C.ar    1  UNL1       -0.0043
     11 C         141.1604  144.7954  162.5336 C.ar    1  UNL1       -0.0003
     12 C         141.3802  144.4763  163.9828 C.ar    1  UNL1       -0.0000
     13 C         141.4388  143.0475  164.4357 C.ar    1  UNL1       -0.0003
     14 C         141.2777  141.9378  163.4394 C.ar    1  UNL1       -0.0043
     15 C         142.5455  138.0119  156.9072 C.ar    1  UNL1        0.0549
     16 C         141.5689  138.2829  155.8014 C.ar    1  UNL1        0.0046
     17 C         140.9497  137.1411  155.0512 C.ar    1  UNL1        0.0015
     18 C         141.3071  135.7284  155.4067 C.ar    1  UNL1        0.0199
     19 C         142.2837  135.4574  156.5125 C.ar    1  UNL1        0.1218
     20 C         142.9029  136.5991  157.2627 C.ar    1  UNL1        0.0244
     21 S         142.6410  134.0447  156.8680 S.O2    1  UNL1        0.0572
     22 N         142.9983  132.6319  157.2235 N.3     1  UNL1       -0.2035
     23 O         141.7852  133.5448  155.7420 O.2     1  UNL1       -0.1532
     24 O         143.4968  134.5444  157.9940 O.2     1  UNL1       -0.1532
     25 H         142.5307  131.9912  156.5822 H       1  UNL1        0.1442
     26 H         142.6991  132.4356  158.1787 H       1  UNL1        0.1442
     27 C         139.5776  141.0550  161.7020 C.3     1  UNL1        0.0215
     28 C         138.3154  141.4401  160.9888 C.3     1  UNL1        0.0723
     29 C         138.2838  141.3803  160.8472 C.3     1  UNL1        0.0893
     30 C         138.7850  142.6742  160.2772 C.3     1  UNL1        0.0386
     31 C         138.7970  142.8849  158.7921 C.3     1  UNL1        0.0594
     32 C         138.6317  142.6612  157.3181 C.3     1  UNL1        0.0174
     33 C         138.0599  141.2889  157.1188 C.3     1  UNL1        0.0174
     34 C         137.8718  140.6644  158.4696 C.3     1  UNL1        0.0594
     35 C         137.7947  140.2972  159.9320 C.3     1  UNL1        0.0386
     36 N         138.3274  141.6508  159.5038 N.3     1  UNL1       -0.2751
     37 C         137.7149  143.5565  162.7540 C.3     1  UNL1        0.0718
     38 C         137.9932  142.2170  163.3691 C.ar    1  UNL1        0.1207
     39 N         138.0855  141.5692  164.7189 N.ar    1  UNL1       -0.2309
     40 C         138.4212  140.1213  164.5161 C.ar    1  UNL1        0.0983
     41 C         138.6369  138.9960  165.4841 C.ar    1  UNL1        0.0206
     42 C         138.9677  137.6236  164.9770 C.ar    1  UNL1        0.0016
     43 C         139.0828  137.3766  163.5020 C.ar    1  UNL1        0.0016
     44 C         138.8671  138.5020  162.5340 C.ar    1  UNL1        0.0188
     45 C         138.5363  139.8743  163.0411 C.ar    1  UNL1        0.0785
     46 N         138.2718  141.1696  162.3322 N.ar    1  UNL1       -0.3167
@<TRIPOS>BOND
     1    37    38    1
     2    38    39   ar
     3    39    40   ar
     4    40    41   ar
     5    41    42   ar
     6    42    43   ar
     7    43    44   ar
     8    44    45   ar
     9    45    46   ar
    10    46    29    1
    11    29    30    1
    12    30    31    1
    13    31    32    1
    14    32    33    1
    15    33    34    1
    16    34    35    1
    17    34    36    1
    18    36    28    1
    19    28    27    1
    20    27     1    1
    21     1     9    1
    22     9    10   ar
    23    10    11   ar
    24    11    12   ar
    25    12    13   ar
    26    13    14   ar
    27     1     2    1
    28     2     3    1
    29     3     4    1
    30     4     5   am
    31     5     6    2
    32     5    15    1
    33    15    16   ar
    34    16    17   ar
    35    17    18   ar
    36    18    19   ar
    37    19    21    1
    38    21    22    1
    39    21    23    2
    40    21    24    2
    41    19    20   ar
    42     4     7    1
    43     7     8    1
    44    46    38   ar
    45    35    29    1
    46     8     1    1
    47    45    40   ar
    48    36    31    1
    49    14     9   ar
    50    20    15   ar
    51    22    25    1
    52    22    26    1
@<TRIPOS>MOLECULE
*****
 46 52 0 0 0
SMALL
GASTEIGER

@<TRIPOS>ATOM
      1 C         141.2033  140.1821  163.0947 C.3     1  UNL1        0.0235
      2 C         140.7380  140.6265  164.4497 C.3     1  UNL1        0.0257
      3 C         141.4875  140.2003  165.6772 C.3     1  UNL1        0.0940
      4 N         142.7023  139.3297  165.5497 N.am    1  UNL1       -0.2761
      5 C         143.4517  138.9034  166.7772 C.2     1  UNL1        0.2491
      6 O         144.6665  138.0328  166.6496 O.2     1  UNL1       -0.2699
      7 C         143.1676  138.8852  164.1947 C.3     1  UNL1        0.0940
      8 C         142.4182  139.3114  162.9673 C.3     1  UNL1        0.0257
      9 C         141.2528  140.0206  161.6042 C.ar    1  UNL1       -0.0226
     10 C         140.8273  138.7269  160.9756 C.ar    1  UNL1       -0.0043
     11 C         140.8767  138.5653  159.4851 C.ar    1  UNL1       -0.0003
     12 C         141.3517  139.6975  158.6234 C.ar    1  UNL1       -0.0000
     13 C         141.7772  140.9912  159.2521 C.ar    1  UNL1       -0.0003
     14 C         141.7277  141.1527  160.7426 C.ar    1  UNL1       -0.0043
     15 C         142.9863  139.3479  168.1321 C.ar    1  UNL1        0.0549
     16 C         142.9741  138.3781  169.2764 C.ar    1  UNL1        0.0046
     17 C         142.5087  138.8227  170.6313 C.ar    1  UNL1        0.0015
     18 C         142.0555  140.2370  170.8419 C.ar    1  UNL1        0.0199
     19 C         142.0677  141.2068  169.6976 C.ar    1  UNL1        0.1218
     20 C         142.5331  140.7622  168.3427 C.ar    1  UNL1        0.0244
     21 S         141.6146  142.6210  169.9083 S.O2    1  UNL1        0.0572
     22 N         141.1614  144.0353  170.1190 N.3     1  UNL1       -0.2035
     23 O         141.2773  142.7301  168.4507 O.2     1  UNL1       -0.1532
     24 O         141.9518  142.5120  171.3659 O.2     1  UNL1       -0.1532
     25 H         140.8425  144.4258  169.2323 H       1  UNL1        0.1442
     26 H         141.9383  144.5917  170.4757 H       1  UNL1        0.1442
     27 C         140.0058  140.9966  162.7046 C.3     1  UNL1        0.0215
     28 C         138.6338  140.5645  163.1302 C.3     1  UNL1        0.0723
     29 C         138.5992  140.5288  163.2791 C.3     1  UNL1        0.0893
     30 C         138.8292  139.0945  162.9050 C.3     1  UNL1        0.0386
     31 C         138.6684  138.0157  163.9347 C.3     1  UNL1        0.0594
     32 C         138.4046  137.3090  165.2312 C.3     1  UNL1        0.0174
     33 C         138.0461  138.3423  166.2578 C.3     1  UNL1        0.0174
     34 C         138.0883  139.6876  165.5957 C.3     1  UNL1        0.0594
     35 C         138.2084  140.8842  164.6830 C.3     1  UNL1        0.0386
     36 N         138.4729  139.4858  164.1599 N.3     1  UNL1       -0.2751
     37 C         137.6686  140.2194  160.4982 C.3     1  UNL1        0.0718
     38 C         138.3172  141.5335  160.8182 C.ar    1  UNL1        0.1207
     39 N         138.6755  142.8300  160.1544 N.ar    1  UNL1       -0.2309
     40 C         139.3399  143.7054  161.1754 C.ar    1  UNL1        0.0983
     41 C         139.9039  145.0929  161.0933 C.ar    1  UNL1        0.0206
     42 C         140.5203  145.7248  162.3060 C.ar    1  UNL1        0.0016
     43 C         140.5725  144.9693  163.6008 C.ar    1  UNL1        0.0016
     44 C         140.0085  143.5819  163.6829 C.ar    1  UNL1        0.0188
     45 C         139.3921  142.9499  162.4702 C.ar    1  UNL1        0.0785
     46 N         138.7601  141.6076  162.2494 N.ar    1  UNL1       -0.3167
@<TRIPOS>BOND
     1    37    38    1
     2    38    39   ar
     3    39    40   ar
     4    40    41   ar
     5    41    42   ar
     6    42    43   ar
     7    43    44   ar
     8    44    45   ar
     9    45    46   ar
    10    46    29    1
    11    29    30    1
    12    30    31    1
    13    31    32    1
    14    32    33    1
    15    33    34    1
    16    34    35    1
    17    34    36    1
    18    36    28    1
    19    28    27    1
    20    27     1    1
    21     1     9    1
    22     9    10   ar
    23    10    11   ar
    24    11    12   ar
    25    12    13   ar
    26    13    14   ar
    27     1     2    1
    28     2     3    1
    29     3     4    1
    30     4     5   am
    31     5     6    2
    32     5    15    1
    33    15    16   ar
    34    16    17   ar
    35    17    18   ar
    36    18    19   ar
    37    19    21    1
    38    21    22    1
    39    21    23    2
    40    21    24    2
    41    19    20   ar
    42     4     7    1
    43     7     8    1
    44    46    38   ar
    45    35    29    1
    46     8     1    1
    47    45    40   ar
    48    36    31    1
    49    14     9   ar
    50    20    15   ar
    51    22    25    1
    52    22    26    1
@<TRIPOS>MOLECULE
*****
 46 52 0 0 0
SMALL
GASTEIGER

@<TRIPOS>ATOM
      1 C         140.8544  141.1486  161.0687 C.3     1  UNL1        0.0235
      2 C         140.2170  139.9949  160.3527 C.3     1  UNL1        0.0257
      3 C         140.9499  139.3050  159.2406 C.3     1  UNL1        0.0940
      4 N         142.3203  139.7688  158.8445 N.am    1  UNL1       -0.2761
      5 C         143.0533  139.0788  157.7324 C.2     1  UNL1        0.2491
      6 O         144.4237  139.5426  157.3362 O.2     1  UNL1       -0.2699
      7 C         142.9578  140.9225  159.5605 C.3     1  UNL1        0.0940
      8 C         142.2249  141.6124  160.6725 C.3     1  UNL1        0.0257
      9 C         141.0381  142.2774  162.0394 C.ar    1  UNL1       -0.0226
     10 C         141.2720  141.9868  163.4922 C.ar    1  UNL1       -0.0043
     11 C         141.4558  143.1156  164.4628 C.ar    1  UNL1       -0.0003
     12 C         141.4055  144.5351  163.9805 C.ar    1  UNL1       -0.0000
     13 C         141.1716  144.8257  162.5276 C.ar    1  UNL1       -0.0003
     14 C         140.9879  143.6968  161.5571 C.ar    1  UNL1       -0.0043
     15 C         142.4158  137.9252  157.0164 C.ar    1  UNL1        0.0549
     16 C         142.9966  136.5483  157.1464 C.ar    1  UNL1        0.0046
     17 C         142.3591  135.3947  156.4304 C.ar    1  UNL1        0.0015
     18 C         141.1407  135.6179  155.5844 C.ar    1  UNL1        0.0199
     19 C         140.5598  136.9947  155.4544 C.ar    1  UNL1        0.1218
     20 C         141.1974  138.1484  156.1704 C.ar    1  UNL1        0.0244
     21 S         139.3415  137.2179  154.6084 S.O2    1  UNL1        0.0572
     22 N         138.1231  137.4411  153.7625 N.3     1  UNL1       -0.2035
     23 O         140.2163  137.5051  153.4243 O.2     1  UNL1       -0.1532
     24 O         138.4666  136.9307  155.7926 O.2     1  UNL1       -0.1532
     25 H         138.4078  137.6758  152.8115 H       1  UNL1        0.1442
     26 H         137.5744  138.2076  154.1521 H       1  UNL1        0.1442
     27 C         139.5479  141.0769  161.8019 C.3     1  UNL1        0.0215
     28 C         138.2724  141.4354  161.0985 C.3     1  UNL1        0.0723
     29 C         138.2396  141.3738  160.9579 C.3     1  UNL1        0.0893
     30 C         138.7241  142.6651  160.3680 C.3     1  UNL1        0.0386
     31 C         138.7169  142.8597  158.8807 C.3     1  UNL1        0.0594
     32 C         138.5359  142.6187  157.4113 C.3     1  UNL1        0.0174
     33 C         137.9722  141.2400  157.2337 C.3     1  UNL1        0.0174
     34 C         137.8049  140.6289  158.5933 C.3     1  UNL1        0.0594
     35 C         137.7479  140.2772  160.0604 C.3     1  UNL1        0.0386
     36 N         138.2652  141.6299  159.6113 N.3     1  UNL1       -0.2751
     37 C         137.7117  143.5743  162.8486 C.3     1  UNL1        0.0718
     38 C         137.9896  142.2398  163.4744 C.ar    1  UNL1        0.1207
     39 N         138.0963  141.6059  164.8297 N.ar    1  UNL1       -0.2309
     40 C         138.4195  140.1537  164.6381 C.ar    1  UNL1        0.0983
     41 C         138.6411  139.0375  165.6153 C.ar    1  UNL1        0.0206
     42 C         138.9557  137.6575  165.1187 C.ar    1  UNL1        0.0016
     43 C         139.0487  137.3938  163.6449 C.ar    1  UNL1        0.0016
     44 C         138.8271  138.5101  162.6678 C.ar    1  UNL1        0.0188
     45 C         138.5125  139.8900  163.1644 C.ar    1  UNL1        0.0785
     46 N         138.2468  141.1793  162.4452 N.ar    1  UNL1       -0.3167
@<TRIPOS>BOND
     1    37    38    1
     2    38    39   ar
     3    39    40   ar
     4    40    41   ar
     5    41    42   ar
     6    42    43   ar
     7    43    44   ar
     8    44    45   ar
     9    45    46   ar
    10    46    29    1
    11    29    30    1
    12    30    31    1
    13    31    32    1
    14    32    33    1
    15    33    34    1
    16    34    35    1
    17    34    36    1
    18    36    28    1
    19    28    27    1
    20    27     1    1
    21     1     9    1
    22     9    10   ar
    23    10    11   ar
    24    11    12   ar
    25    12    13   ar
    26    13    14   ar
    27     1     2    1
    28     2     3    1
    29     3     4    1
    30     4     5   am
    31     5     6    2
    32     5    15    1
    33    15    16   ar
    34    16    17   ar
    35    17    18   ar
    36    18    19   ar
    37    19    21    1
    38    21    22    1
    39    21    23    2
    40    21    24    2
    41    19    20   ar
    42     4     7    1
    43     7     8    1
    44    46    38   ar
    45    35    29    1
    46     8     1    1
    47    45    40   ar
    48    36    31    1
    49    14     9   ar
    50    20    15   ar
    51    22    25    1
    52    22    26    1
@<TRIPOS>MOLECULE
*****
 46 52 0 0 0
SMALL
GASTEIGER

@<TRIPOS>ATOM
      1 C         140.1624  140.8463  161.9057 C.3     1  UNL1        0.0235
      2 C         140.9718  141.4230  163.0292 C.3     1  UNL1        0.0257
      3 C         140.7773  140.9201  164.4289 C.3     1  UNL1        0.0940
      4 N         139.7733  139.8404  164.7052 N.am    1  UNL1       -0.2761
      5 C         139.5788  139.3375  166.1049 C.2     1  UNL1        0.2491
      6 O         138.5748  138.2578  166.3812 O.2     1  UNL1       -0.2699
      7 C         138.9639  139.2636  163.5817 C.3     1  UNL1        0.0940
      8 C         139.1584  139.7665  162.1820 C.3     1  UNL1        0.0257
      9 C         139.6384  140.6167  160.5190 C.ar    1  UNL1       -0.0226
     10 C         139.9767  139.3505  159.7895 C.ar    1  UNL1       -0.0043
     11 C         139.4527  139.1210  158.4028 C.ar    1  UNL1       -0.0003
     12 C         138.5904  140.1578  157.7458 C.ar    1  UNL1       -0.0000
     13 C         138.2522  141.4240  158.4754 C.ar    1  UNL1       -0.0003
     14 C         138.7762  141.6534  159.8620 C.ar    1  UNL1       -0.0043
     15 C         140.3882  139.9143  167.2283 C.ar    1  UNL1        0.0549
     16 C         141.8378  139.5555  167.3696 C.ar    1  UNL1        0.0046
     17 C         142.6472  140.1323  168.4931 C.ar    1  UNL1        0.0015
     18 C         142.0070  141.0681  169.4752 C.ar    1  UNL1        0.0199
     19 C         140.5574  141.4269  169.3339 C.ar    1  UNL1        0.1218
     20 C         139.7480  140.8500  168.2105 C.ar    1  UNL1        0.0244
     21 S         139.9173  142.3626  170.3160 S.O2    1  UNL1        0.0572
     22 N         139.2771  143.2984  171.2982 N.3     1  UNL1       -0.2035
     23 O         138.7574  141.4218  170.4564 O.2     1  UNL1       -0.1532
     24 O         141.0771  143.3035  170.1757 O.2     1  UNL1       -0.1532
     25 H         138.3885  142.9073  171.6108 H       1  UNL1        0.1442
     26 H         139.1132  144.2004  170.8512 H       1  UNL1        0.1442
     27 C         140.9843  141.8462  161.1479 C.3     1  UNL1        0.0215
     28 C         142.4512  141.6093  160.9417 C.3     1  UNL1        0.0723
     29 C         142.5413  141.5650  161.0623 C.3     1  UNL1        0.0893
     30 C         142.4267  140.1667  160.5315 C.3     1  UNL1        0.0386
     31 C         143.1111  139.0365  161.2416 C.3     1  UNL1        0.0594
     32 C         143.9249  138.2589  162.2330 C.3     1  UNL1        0.0174
     33 C         144.4523  139.2209  163.2559 C.3     1  UNL1        0.0174
     34 C         143.9645  140.5931  162.8967 C.3     1  UNL1        0.0594
     35 C         143.3402  141.8330  162.3032 C.3     1  UNL1        0.0386
     36 N         143.1355  140.4792  161.6517 N.3     1  UNL1       -0.2751
     37 C         142.3292  141.6964  158.1241 C.3     1  UNL1        0.0718
     38 C         141.7046  142.8400  158.8670 C.ar    1  UNL1        0.1207
     39 N         140.9582  144.1134  158.5996 N.ar    1  UNL1       -0.2309
     40 C         140.6494  144.7556  159.9195 C.ar    1  UNL1        0.0983
     41 C         139.9341  146.0253  160.2750 C.ar    1  UNL1        0.0206
     42 C         139.7743  146.4184  161.7136 C.ar    1  UNL1        0.0016
     43 C         140.3297  145.5420  162.7968 C.ar    1  UNL1        0.0016
     44 C         141.0450  144.2723  162.4414 C.ar    1  UNL1        0.0188
     45 C         141.2048  143.8792  161.0027 C.ar    1  UNL1        0.0785
     46 N         141.8569  142.6953  160.3522 N.ar    1  UNL1       -0.3167
@<TRIPOS>BOND
     1    37    38    1
     2    38    39   ar
     3    39    40   ar
     4    40    41   ar
     5    41    42   ar
     6    42    43   ar
     7    43    44   ar
     8    44    45   ar
     9    45    46   ar
    10    46    29    1
    11    29    30    1
    12    30    31    1
    13    31    32    1
    14    32    33    1
    15    33    34    1
    16    34    35    1
    17    34    36    1
    18    36    28    1
    19    28    27    1
    20    27     1    1
    21     1     9    1
    22     9    10   ar
    23    10    11   ar
    24    11    12   ar
    25    12    13   ar
    26    13    14   ar
    27     1     2    1
    28     2     3    1
    29     3     4    1
    30     4     5   am
    31     5     6    2
    32     5    15    1
    33    15    16   ar
    34    16    17   ar
    35    17    18   ar
    36    18    19   ar
    37    19    21    1
    38    21    22    1
    39    21    23    2
    40    21    24    2
    41    19    20   ar
    42     4     7    1
    43     7     8    1
    44    46    38   ar
    45    35    29    1
    46     8     1    1
    47    45    40   ar
    48    36    31    1
    49    14     9   ar
    50    20    15   ar
    51    22    25    1
    52    22    26    1
@<TRIPOS>MOLECULE
*****
 46 52 0 0 0
SMALL
GASTEIGER

@<TRIPOS>ATOM
      1 C         141.6099  141.8945  164.8881 C.3     1  UNL1        0.0235
      2 C         141.6066  141.0002  163.6838 C.3     1  UNL1        0.0257
      3 C         141.6574  141.5950  162.3077 C.3     1  UNL1        0.0940
      4 N         141.7115  143.0841  162.1359 N.am    1  UNL1       -0.2761
      5 C         141.7623  143.6790  160.7598 C.2     1  UNL1        0.2491
      6 O         141.8164  145.1681  160.5880 O.2     1  UNL1       -0.2699
      7 C         141.7148  143.9784  163.3402 C.3     1  UNL1        0.0940
      8 C         141.6640  143.3837  164.7162 C.3     1  UNL1        0.0257
      9 C         141.5923  142.3234  166.3254 C.ar    1  UNL1       -0.0226
     10 C         140.3458  142.9115  166.9173 C.ar    1  UNL1       -0.0043
     11 C         140.3282  143.3405  168.3546 C.ar    1  UNL1       -0.0003
     12 C         141.5571  143.1812  169.1999 C.ar    1  UNL1       -0.0000
     13 C         142.8036  142.5930  168.6079 C.ar    1  UNL1       -0.0003
     14 C         142.8211  142.1641  167.1707 C.ar    1  UNL1       -0.0043
     15 C         141.7591  142.7846  159.5556 C.ar    1  UNL1        0.0549
     16 C         140.4601  142.3924  158.9162 C.ar    1  UNL1        0.0046
     17 C         140.4570  141.4980  157.7120 C.ar    1  UNL1        0.0015
     18 C         141.7527  140.9959  157.1472 C.ar    1  UNL1        0.0199
     19 C         143.0516  141.3882  157.7867 C.ar    1  UNL1        0.1218
     20 C         143.0548  142.2825  158.9909 C.ar    1  UNL1        0.0244
     21 S         144.3473  140.8861  157.2219 S.O2    1  UNL1        0.0572
     22 N         145.6430  140.3839  156.6571 N.3     1  UNL1       -0.2035
     23 O         144.4968  142.1552  156.4364 O.2     1  UNL1       -0.1532
     24 O         144.1979  139.6168  158.0073 O.2     1  UNL1       -0.1532
     25 H         146.0326  141.0838  156.0256 H       1  UNL1        0.1442
     26 H         145.4775  139.5178  156.1444 H       1  UNL1        0.1442
     27 C         141.5497  140.5543  165.5591 C.3     1  UNL1        0.0215
     28 C         140.3143  139.7115  165.4417 C.3     1  UNL1        0.0723
     29 C         140.2545  139.6775  165.3006 C.3     1  UNL1        0.0893
     30 C         139.2718  140.7857  165.5384 C.3     1  UNL1        0.0386
     31 C         138.2396  141.1086  164.4990 C.3     1  UNL1        0.0594
     32 C         137.4243  141.0779  163.2403 C.3     1  UNL1        0.0174
     33 C         137.9629  139.9847  162.3658 C.3     1  UNL1        0.0174
     34 C         139.1111  139.3398  163.0839 C.3     1  UNL1        0.0594
     35 C         140.2048  138.8923  164.0236 C.3     1  UNL1        0.0386
     36 N         139.2821  140.0344  164.4024 N.3     1  UNL1       -0.2751
     37 C         142.9203  138.6201  164.6144 C.3     1  UNL1        0.0718
     38 C         142.6619  138.8153  166.0790 C.ar    1  UNL1        0.1207
     39 N         143.3501  138.6418  167.4005 N.ar    1  UNL1       -0.2309
     40 C         142.4003  139.0738  168.4781 C.ar    1  UNL1        0.0983
     41 C         142.5318  139.1230  169.9714 C.ar    1  UNL1        0.0206
     42 C         141.3882  139.6127  170.8093 C.ar    1  UNL1        0.0016
     43 C         140.1129  140.0533  170.1539 C.ar    1  UNL1        0.0016
     44 C         139.9814  140.0041  168.6605 C.ar    1  UNL1        0.0188
     45 C         141.1250  139.5144  167.8226 C.ar    1  UNL1        0.0785
     46 N         141.2868  139.3546  166.3399 N.ar    1  UNL1       -0.3167
@<TRIPOS>BOND
     1    37    38    1
     2    38    39   ar
     3    39    40   ar
     4    40    41   ar
     5    41    42   ar
     6    42    43   ar
     7    43    44   ar
     8    44    45   ar
     9    45    46   ar
    10    46    29    1
    11    29    30    1
    12    30    31    1
    13    31    32    1
    14    32    33    1
    15    33    34    1
    16    34    35    1
    17    34    36    1
    18    36    28    1
    19    28    27    1
    20    27     1    1
    21     1     9    1
    22     9    10   ar
    23    10    11   ar
    24    11    12   ar
    25    12    13   ar
    26    13    14   ar
    27     1     2    1
    28     2     3    1
    29     3     4    1
    30     4     5   am
    31     5     6    2
    32     5    15    1
    33    15    16   ar
    34    16    17   ar
    35    17    18   ar
    36    18    19   ar
    37    19    21    1
    38    21    22    1
    39    21    23    2
    40    21    24    2
    41    19    20   ar
    42     4     7    1
    43     7     8    1
    44    46    38   ar
    45    35    29    1
    46     8     1    1
    47    45    40   ar
    48    36    31    1
    49    14     9   ar
    50    20    15   ar
    51    22    25    1
    52    22    26    1
@<TRIPOS>MOLECULE
*****
 46 52 0 0 0
SMALL
GASTEIGER

@<TRIPOS>ATOM
      1 C         140.1799  141.3555  163.0944 C.3     1  UNL1        0.0235
      2 C         140.6693  141.9343  164.3888 C.3     1  UNL1        0.0257
      3 C         140.2758  141.3006  165.6902 C.3     1  UNL1        0.0940
      4 N         139.3928  140.0880  165.6972 N.am    1  UNL1       -0.2761
      5 C         138.9993  139.4543  166.9985 C.2     1  UNL1        0.2491
      6 O         138.1163  138.2417  167.0055 O.2     1  UNL1       -0.2699
      7 C         138.9034  139.5092  164.4028 C.3     1  UNL1        0.0940
      8 C         139.2969  140.1429  163.1015 C.3     1  UNL1        0.0257
      9 C         139.9720  141.1761  161.6197 C.ar    1  UNL1       -0.0226
     10 C         138.6347  141.4741  161.0091 C.ar    1  UNL1       -0.0043
     11 C         138.4268  141.2947  159.5344 C.ar    1  UNL1       -0.0003
     12 C         139.5563  140.8172  158.6704 C.ar    1  UNL1       -0.0000
     13 C         140.8936  140.5192  159.2811 C.ar    1  UNL1       -0.0003
     14 C         141.1013  140.6987  160.7558 C.ar    1  UNL1       -0.0043
     15 C         139.4888  140.0332  168.2929 C.ar    1  UNL1        0.0549
     16 C         138.5797  140.0797  169.4851 C.ar    1  UNL1        0.0046
     17 C         139.0693  140.6586  170.7794 C.ar    1  UNL1        0.0015
     18 C         140.4679  141.1910  170.8814 C.ar    1  UNL1        0.0199
     19 C         141.3770  141.1445  169.6892 C.ar    1  UNL1        0.1218
     20 C         140.8874  140.5656  168.3949 C.ar    1  UNL1        0.0244
     21 S         142.7755  141.6769  169.7913 S.O2    1  UNL1        0.0572
     22 N         144.1741  142.2093  169.8934 N.3     1  UNL1       -0.2035
     23 O         143.3092  140.2750  169.7904 O.2     1  UNL1       -0.1532
     24 O         142.2418  143.0788  169.7922 O.2     1  UNL1       -0.1532
     25 H         144.8333  141.4313  169.9160 H       1  UNL1        0.1442
     26 H         144.2672  142.7587  170.7477 H       1  UNL1        0.1442
     27 C         140.9906  142.5057  162.5753 C.3     1  UNL1        0.0215
     28 C         140.5163  143.9131  162.7859 C.3     1  UNL1        0.0723
     29 C         140.4671  143.9620  162.9267 C.3     1  UNL1        0.0893
     30 C         139.0713  143.7167  162.4349 C.3     1  UNL1        0.0386
     31 C         137.9011  143.9874  163.3335 C.3     1  UNL1        0.0594
     32 C         137.0774  144.3805  164.5239 C.3     1  UNL1        0.0174
     33 C         138.0134  144.8199  165.6105 C.3     1  UNL1        0.0174
     34 C         139.4156  144.6983  165.0918 C.3     1  UNL1        0.0594
     35 C         140.6925  144.4778  164.3170 C.3     1  UNL1        0.0386
     36 N         139.3462  144.1838  163.6844 N.3     1  UNL1       -0.2751
     37 C         140.4213  144.5575  160.0391 C.3     1  UNL1        0.0718
     38 C         141.6984  143.9628  160.5542 C.ar    1  UNL1        0.1207
     39 N         143.0507  143.5409  160.0609 N.ar    1  UNL1       -0.2309
     40 C         143.8253  143.0087  161.2300 C.ar    1  UNL1        0.0983
     41 C         145.2132  142.4515  161.3445 C.ar    1  UNL1        0.0206
     42 C         145.7276  141.9872  162.6748 C.ar    1  UNL1        0.0016
     43 C         144.8540  142.0802  163.8907 C.ar    1  UNL1        0.0016
     44 C         143.4661  142.6374  163.7762 C.ar    1  UNL1        0.0188
     45 C         142.9517  143.1017  162.4459 C.ar    1  UNL1        0.0785
     46 N         141.6372  143.6913  162.0282 N.ar    1  UNL1       -0.3167
@<TRIPOS>BOND
     1    37    38    1
     2    38    39   ar
     3    39    40   ar
     4    40    41   ar
     5    41    42   ar
     6    42    43   ar
     7    43    44   ar
     8    44    45   ar
     9    45    46   ar
    10    46    29    1
    11    29    30    1
    12    30    31    1
    13    31    32    1
    14    32    33    1
    15    33    34    1
    16    34    35    1
    17    34    36    1
    18    36    28    1
    19    28    27    1
    20    27     1    1
    21     1     9    1
    22     9    10   ar
    23    10    11   ar
    24    11    12   ar
    25    12    13   ar
    26    13    14   ar
    27     1     2    1
    28     2     3    1
    29     3     4    1
    30     4     5   am
    31     5     6    2
    32     5    15    1
    33    15    16   ar
    34    16    17   ar
    35    17    18   ar
    36    18    19   ar
    37    19    21    1
    38    21    22    1
    39    21    23    2
    40    21    24    2
    41    19    20   ar
    42     4     7    1
    43     7     8    1
    44    46    38   ar
    45    35    29    1
    46     8     1    1
    47    45    40   ar
    48    36    31    1
    49    14     9   ar
    50    20    15   ar
    51    22    25    1
    52    22    26    1
@<TRIPOS>MOLECULE
*****
 46 52 0 0 0
SMALL
GASTEIGER

@<TRIPOS>ATOM
      1 C         141.9638  142.7391  161.4537 C.3     1  UNL1        0.0235
      2 C         141.5566  141.7299  162.4861 C.3     1  UNL1        0.0257
      3 C         142.1385  141.7932  163.8672 C.3     1  UNL1        0.0940
      4 N         143.1275  142.8656  164.2160 N.am    1  UNL1       -0.2761
      5 C         143.7094  142.9289  165.5971 C.2     1  UNL1        0.2491
      6 O         144.6984  144.0014  165.9459 O.2     1  UNL1       -0.2699
      7 C         143.5347  143.8749  163.1837 C.3     1  UNL1        0.0940
      8 C         142.9529  143.8116  161.8026 C.3     1  UNL1        0.0257
      9 C         142.0363  143.4633  160.1421 C.ar    1  UNL1       -0.0226
     10 C         142.7751  142.8529  158.9882 C.ar    1  UNL1       -0.0043
     11 C         142.8476  143.5771  157.6765 C.ar    1  UNL1       -0.0003
     12 C         142.1811  144.9116  157.5189 C.ar    1  UNL1       -0.0000
     13 C         141.4423  145.5220  158.6728 C.ar    1  UNL1       -0.0003
     14 C         141.3699  144.7978  159.9844 C.ar    1  UNL1       -0.0043
     15 C         143.3021  141.9196  166.6294 C.ar    1  UNL1        0.0549
     16 C         143.1744  140.4729  166.2544 C.ar    1  UNL1        0.0046
     17 C         142.7672  139.4637  167.2867 C.ar    1  UNL1        0.0015
     18 C         142.4877  139.9013  168.6940 C.ar    1  UNL1        0.0199
     19 C         142.6155  141.3480  169.0690 C.ar    1  UNL1        0.1218
     20 C         143.0227  142.3572  168.0367 C.ar    1  UNL1        0.0244
     21 S         142.3360  141.7855  170.4762 S.O2    1  UNL1        0.0572
     22 N         142.0565  142.2230  171.8835 N.3     1  UNL1       -0.2035
     23 O         141.6705  140.4700  170.7531 O.2     1  UNL1       -0.1532
     24 O         143.0015  143.1010  170.1995 O.2     1  UNL1       -0.1532
     25 H         141.5665  141.4788  172.3800 H       1  UNL1        0.1442
     26 H         141.4764  143.0619  171.8699 H       1  UNL1        0.1442
     27 C         141.0000  141.9182  160.6495 C.3     1  UNL1        0.0215
     28 C         139.5309  141.9822  160.9458 C.3     1  UNL1        0.0723
     29 C         139.4795  141.9639  161.0930 C.3     1  UNL1        0.0893
     30 C         139.3729  143.4588  161.1573 C.3     1  UNL1        0.0386
     31 C         138.8891  144.1229  162.4122 C.3     1  UNL1        0.0594
     32 C         138.3807  144.3396  163.8067 C.3     1  UNL1        0.0174
     33 C         138.2246  142.9970  164.4571 C.3     1  UNL1        0.0174
     34 C         138.6365  141.9504  163.4646 C.3     1  UNL1        0.0594
     35 C         139.1024  141.1333  162.2837 C.3     1  UNL1        0.0386
     36 N         139.0471  142.6463  162.2007 N.3     1  UNL1       -0.2751
     37 C         138.7539  142.9326  158.4041 C.3     1  UNL1        0.0718
     38 C         139.6435  141.7254  158.4357 C.ar    1  UNL1        0.1207
     39 N         140.3344  140.7820  157.4961 N.ar    1  UNL1       -0.2309
     40 C         141.0812  139.7734  158.3178 C.ar    1  UNL1        0.0983
     41 C         141.9403  138.6050  157.9349 C.ar    1  UNL1        0.0206
     42 C         142.5702  137.7566  158.9995 C.ar    1  UNL1        0.0016
     43 C         142.3408  138.0765  160.4469 C.ar    1  UNL1        0.0016
     44 C         141.4816  139.2449  160.8298 C.ar    1  UNL1        0.0188
     45 C         140.8518  140.0934  159.7652 C.ar    1  UNL1        0.0785
     46 N         139.9633  141.2997  159.8381 N.ar    1  UNL1       -0.3167
@<TRIPOS>BOND
     1    37    38    1
     2    38    39   ar
     3    39    40   ar
     4    40    41   ar
     5    41    42   ar
     6    42    43   ar
     7    43    44   ar
     8    44    45   ar
     9    45    46   ar
    10    46    29    1
    11    29    30    1
    12    30    31    1
    13    31    32    1
    14    32    33    1
    15    33    34    1
    16    34    35    1
    17    34    36    1
    18    36    28    1
    19    28    27    1
    20    27     1    1
    21     1     9    1
    22     9    10   ar
    23    10    11   ar
    24    11    12   ar
    25    12    13   ar
    26    13    14   ar
    27     1     2    1
    28     2     3    1
    29     3     4    1
    30     4     5   am
    31     5     6    2
    32     5    15    1
    33    15    16   ar
    34    16    17   ar
    35    17    18   ar
    36    18    19   ar
    37    19    21    1
    38    21    22    1
    39    21    23    2
    40    21    24    2
    41    19    20   ar
    42     4     7    1
    43     7     8    1
    44    46    38   ar
    45    35    29    1
    46     8     1    1
    47    45    40   ar
    48    36    31    1
    49    14     9   ar
    50    20    15   ar
    51    22    25    1
    52    22    26    1
