@<TRIPOS>MOLECULE
*****
 27 30 0 0 0
SMALL
GASTEIGER

@<TRIPOS>ATOM
      1 N         143.2552  141.7001  164.4482 N.3     1  UNL1       -0.2713
      2 C         144.4628  142.5787  164.5893 C.3     1  UNL1        0.0614
      3 C         145.6132  141.8983  163.9084 C.3     1  UNL1        0.0175
      4 C         145.1166  140.5992  163.3465 C.3     1  UNL1        0.0175
      5 C         143.6593  140.4767  163.6801 C.3     1  UNL1        0.0614
      6 C         142.2318  140.6219  164.1494 C.3     1  UNL1        0.0595
      7 C         141.9764  141.8936  164.9027 C.3     1  UNL1        0.1686
      8 C         143.0918  142.8720  165.1227 C.3     1  UNL1        0.0595
      9 C         141.8843  141.9935  164.9816 C.3     1  UNL1        0.1022
     10 C         138.1352  142.8181  161.5689 C.3     1  UNL1        0.1537
     11 N         139.1462  143.3060  162.5638 N.ar    1  UNL1       -0.2476
     12 C         139.9252  142.1778  163.1724 C.ar    1  UNL1        0.0938
     13 C         140.9037  142.7630  164.1472 C.ar    1  UNL1        0.0335
     14 C         140.7293  144.2528  164.1411 C.ar    1  UNL1        0.1187
     15 N         139.6432  144.5884  163.1625 N.ar    1  UNL1       -0.1679
     16 O         140.6053  142.1869  165.4361 O.3     1  UNL1       -0.4791
     17 C         140.2077  141.6923  166.7953 C.ar    1  UNL1        0.1385
     18 C         139.6176  140.3222  166.9518 C.ar    1  UNL1        0.0369
     19 C         139.2200  139.8276  168.3108 C.ar    1  UNL1        0.0033
     20 C         139.4125  140.7031  169.5135 C.ar    1  UNL1        0.0047
     21 C         140.0025  142.0733  169.3570 C.ar    1  UNL1        0.0561
     22 C         140.4002  142.5679  167.9978 C.ar    1  UNL1        0.0414
     23 C         140.1950  142.9488  170.5596 C.2     1  UNL1        0.2428
     24 N         140.1150  144.4404  170.4221 N.am    1  UNL1       -0.3253
     25 O         140.4674  142.3328  171.9000 O.2     1  UNL1       -0.2704
     26 H         139.9362  144.8447  169.5424 H       1  UNL1        0.1453
     27 H         140.2413  145.0150  171.2114 H       1  UNL1        0.1453
@<TRIPOS>BOND
     1    10    11    1
     2    11    12   ar
     3    12    13   ar
     4    13     9    1
     5     9     1    1
     6     1     2    1
     7     2     3    1
     8     3     4    1
     9     5     4    1
    10     5     6    1
    11     6     7    1
    12     7    16    1
    13    16    17    1
    14    17    18   ar
    15    18    19   ar
    16    19    20   ar
    17    20    21   ar
    18    21    23    1
    19    23    24   am
    20    23    25    2
    21    21    22   ar
    22     7     8    1
    23    13    14   ar
    24    14    15   ar
    25    15    11   ar
    26     5     1    1
    27    22    17   ar
    28     8     2    1
    29    24    26    1
    30    24    27    1
@<TRIPOS>MOLECULE
*****
 27 30 0 0 0
SMALL
GASTEIGER

@<TRIPOS>ATOM
      1 N         141.6206  142.3443  168.2593 N.3     1  UNL1       -0.2713
      2 C         141.3204  143.1232  169.5056 C.3     1  UNL1        0.0614
      3 C         142.5597  143.1419  170.3504 C.3     1  UNL1        0.0175
      4 C         143.6259  142.3745  169.6263 C.3     1  UNL1        0.0175
      5 C         143.0456  141.8816  168.3339 C.3     1  UNL1        0.0614
      6 C         142.2105  141.5251  167.1278 C.3     1  UNL1        0.0595
      7 C         140.8087  142.0552  167.1931 C.3     1  UNL1        0.1686
      8 C         140.3637  142.8542  168.3820 C.3     1  UNL1        0.0595
      9 C         140.6640  142.0753  167.1357 C.3     1  UNL1        0.1022
     10 C         141.9547  144.7598  162.9513 C.3     1  UNL1        0.1537
     11 N         140.9950  144.4034  164.0477 N.ar    1  UNL1       -0.2476
     12 C         141.5507  143.3505  164.9603 C.ar    1  UNL1        0.0938
     13 C         140.5247  143.0640  166.0163 C.ar    1  UNL1        0.0335
     14 C         139.3350  143.9398  165.7564 C.ar    1  UNL1        0.1187
     15 N         139.6256  144.7675  164.5398 N.ar    1  UNL1       -0.1679
     16 O         139.8520  141.7861  166.0695 O.3     1  UNL1       -0.4791
     17 C         139.4135  140.3816  165.7779 C.ar    1  UNL1        0.1385
     18 C         138.6053  139.6232  166.7886 C.ar    1  UNL1        0.0369
     19 C         138.1668  138.2187  166.4971 C.ar    1  UNL1        0.0033
     20 C         138.5364  137.5726  165.1948 C.ar    1  UNL1        0.0047
     21 C         139.3446  138.3311  164.1841 C.ar    1  UNL1        0.0561
     22 C         139.7831  139.7356  164.4757 C.ar    1  UNL1        0.0414
     23 C         139.7142  137.6850  162.8818 C.2     1  UNL1        0.2428
     24 N         138.7521  137.7122  161.7313 N.am    1  UNL1       -0.3253
     25 O         141.0461  137.0117  162.7300 O.2     1  UNL1       -0.2704
     26 H         137.8780  138.1541  161.8310 H       1  UNL1        0.1453
     27 H         138.9947  137.2881  160.8766 H       1  UNL1        0.1453
@<TRIPOS>BOND
     1    10    11    1
     2    11    12   ar
     3    12    13   ar
     4    13     9    1
     5     9     1    1
     6     1     2    1
     7     2     3    1
     8     3     4    1
     9     5     4    1
    10     5     6    1
    11     6     7    1
    12     7    16    1
    13    16    17    1
    14    17    18   ar
    15    18    19   ar
    16    19    20   ar
    17    20    21   ar
    18    21    23    1
    19    23    24   am
    20    23    25    2
    21    21    22   ar
    22     7     8    1
    23    13    14   ar
    24    14    15   ar
    25    15    11   ar
    26     5     1    1
    27    22    17   ar
    28     8     2    1
    29    24    26    1
    30    24    27    1
@<TRIPOS>MOLECULE
*****
 27 30 0 0 0
SMALL
GASTEIGER

@<TRIPOS>ATOM
      1 N         139.1410  142.3515  164.2557 N.3     1  UNL1       -0.2713
      2 C         137.7278  142.8104  164.0497 C.3     1  UNL1        0.0614
      3 C         137.7691  144.1960  163.4769 C.3     1  UNL1        0.0175
      4 C         139.2079  144.5936  163.3288 C.3     1  UNL1        0.0175
      5 C         140.0557  143.4536  163.8101 C.3     1  UNL1        0.0614
      6 C         140.6437  142.1711  164.3474 C.3     1  UNL1        0.0595
      7 C         139.6097  141.1629  164.7528 C.3     1  UNL1        0.1686
      8 C         138.1517  141.4825  164.6039 C.3     1  UNL1        0.0595
      9 C         139.5649  141.0237  164.8099 C.3     1  UNL1        0.1022
     10 C         141.7201  137.9082  161.3414 C.3     1  UNL1        0.1537
     11 N         140.6017  138.2777  162.2701 N.ar    1  UNL1       -0.2476
     12 C         140.8775  139.5590  162.9997 C.ar    1  UNL1        0.0938
     13 C         139.7097  139.8418  163.8975 C.ar    1  UNL1        0.0335
     14 C         138.7122  138.7354  163.7229 C.ar    1  UNL1        0.1187
     15 N         139.2634  137.7687  162.7171 N.ar    1  UNL1       -0.1679
     16 O         140.0337  139.8350  165.3070 O.3     1  UNL1       -0.4791
     17 C         140.6988  139.7605  166.6494 C.ar    1  UNL1        0.1385
     18 C         142.1591  139.4312  166.7456 C.ar    1  UNL1        0.0369
     19 C         142.8242  139.3566  168.0880 C.ar    1  UNL1        0.0033
     20 C         142.0291  139.6114  169.3341 C.ar    1  UNL1        0.0047
     21 C         140.5689  139.9407  169.2379 C.ar    1  UNL1        0.0561
     22 C         139.9037  140.0152  167.8955 C.ar    1  UNL1        0.0414
     23 C         139.7738  140.1954  170.4841 C.2     1  UNL1        0.2428
     24 N         139.6884  139.1413  171.5479 N.am    1  UNL1       -0.3253
     25 O         139.0641  141.5043  170.6665 O.2     1  UNL1       -0.2704
     26 H         140.1542  138.2823  171.4281 H       1  UNL1        0.1453
     27 H         139.1666  139.3085  172.3658 H       1  UNL1        0.1453
@<TRIPOS>BOND
     1    10    11    1
     2    11    12   ar
     3    12    13   ar
     4    13     9    1
     5     9     1    1
     6     1     2    1
     7     2     3    1
     8     3     4    1
     9     5     4    1
    10     5     6    1
    11     6     7    1
    12     7    16    1
    13    16    17    1
    14    17    18   ar
    15    18    19   ar
    16    19    20   ar
    17    20    21   ar
    18    21    23    1
    19    23    24   am
    20    23    25    2
    21    21    22   ar
    22     7     8    1
    23    13    14   ar
    24    14    15   ar
    25    15    11   ar
    26     5     1    1
    27    22    17   ar
    28     8     2    1
    29    24    26    1
    30    24    27    1
@<TRIPOS>MOLECULE
*****
 27 30 0 0 0
SMALL
GASTEIGER

@<TRIPOS>ATOM
      1 N         139.8080  139.9110  163.9096 N.3     1  UNL1       -0.2713
      2 C         140.5308  139.3313  162.7299 C.3     1  UNL1        0.0614
      3 C         139.9262  137.9921  162.4282 C.3     1  UNL1        0.0175
      4 C         138.8298  137.7441  163.4213 C.3     1  UNL1        0.0175
      5 C         138.7567  138.9301  164.3369 C.3     1  UNL1        0.0614
      6 C         138.9112  140.2293  165.0901 C.3     1  UNL1        0.0595
      7 C         140.0005  141.1078  164.5499 C.3     1  UNL1        0.1686
      8 C         140.8102  140.6588  163.3699 C.3     1  UNL1        0.0595
      9 C         140.0875  141.2385  164.5495 C.3     1  UNL1        0.1022
     10 C         139.6245  145.7255  162.0929 C.3     1  UNL1        0.1537
     11 N         139.0565  144.6003  162.9062 N.ar    1  UNL1       -0.2476
     12 C         140.0861  143.5537  163.2135 C.ar    1  UNL1        0.0938
     13 C         139.4261  142.4783  164.0245 C.ar    1  UNL1        0.0335
     14 C         137.9886  142.8603  164.2185 C.ar    1  UNL1        0.1187
     15 N         137.7601  144.1717  163.5273 N.ar    1  UNL1       -0.1679
     16 O         140.2799  142.4354  165.1899 O.3     1  UNL1       -0.4791
     17 C         140.9958  142.4974  166.5066 C.ar    1  UNL1        0.1385
     18 C         142.4313  142.0723  166.6005 C.ar    1  UNL1        0.0369
     19 C         143.1472  142.1343  167.9171 C.ar    1  UNL1        0.0033
     20 C         142.4277  142.6213  169.1399 C.ar    1  UNL1        0.0047
     21 C         140.9923  143.0464  169.0459 C.ar    1  UNL1        0.0561
     22 C         140.2763  142.9844  167.7293 C.ar    1  UNL1        0.0414
     23 C         140.2728  143.5334  170.2687 C.2     1  UNL1        0.2428
     24 N         139.9341  142.5746  171.3714 N.am    1  UNL1       -0.3253
     25 O         139.8920  144.9794  170.3888 O.2     1  UNL1       -0.2704
     26 H         140.1840  141.6256  171.2926 H       1  UNL1        0.1453
     27 H         139.4619  142.8943  172.1739 H       1  UNL1        0.1453
@<TRIPOS>BOND
     1    10    11    1
     2    11    12   ar
     3    12    13   ar
     4    13     9    1
     5     9     1    1
     6     1     2    1
     7     2     3    1
     8     3     4    1
     9     5     4    1
    10     5     6    1
    11     6     7    1
    12     7    16    1
    13    16    17    1
    14    17    18   ar
    15    18    19   ar
    16    19    20   ar
    17    20    21   ar
    18    21    23    1
    19    23    24   am
    20    23    25    2
    21    21    22   ar
    22     7     8    1
    23    13    14   ar
    24    14    15   ar
    25    15    11   ar
    26     5     1    1
    27    22    17   ar
    28     8     2    1
    29    24    26    1
    30    24    27    1
@<TRIPOS>MOLECULE
*****
 27 30 0 0 0
SMALL
GASTEIGER

@<TRIPOS>ATOM
      1 N         142.4613  143.0089  164.6886 N.3     1  UNL1       -0.2713
      2 C         143.8284  143.6234  164.7479 C.3     1  UNL1        0.0614
      3 C         143.7489  144.9909  164.1368 C.3     1  UNL1        0.0175
      4 C         142.3326  145.2216  163.6998 C.3     1  UNL1        0.0175
      5 C         141.5368  143.9966  164.0408 C.3     1  UNL1        0.0614
      6 C         140.9989  142.6600  164.4915 C.3     1  UNL1        0.0595
      7 C         142.0372  141.7787  165.1203 C.3     1  UNL1        0.1686
      8 C         143.4519  142.2604  165.2485 C.3     1  UNL1        0.0595
      9 C         142.0848  141.6459  165.1892 C.3     1  UNL1        0.1022
     10 C         140.7174  138.0521  161.7838 C.3     1  UNL1        0.1537
     11 N         141.7220  138.6962  162.6926 N.ar    1  UNL1       -0.2476
     12 C         141.1496  139.8808  163.4130 C.ar    1  UNL1        0.0938
     13 C         142.2230  140.4524  164.2910 C.ar    1  UNL1        0.0335
     14 C         143.4588  139.6211  164.1133 C.ar    1  UNL1        0.1187
     15 N         143.1492  138.5357  163.1254 N.ar    1  UNL1       -0.1679
     16 O         141.6606  140.4157  165.6209 O.3     1  UNL1       -0.4791
     17 C         141.3378  140.2123  167.0716 C.ar    1  UNL1        0.1385
     18 C         139.9910  140.6053  167.6025 C.ar    1  UNL1        0.0369
     19 C         139.6682  140.4019  169.0530 C.ar    1  UNL1        0.0033
     20 C         140.6921  139.8055  169.9728 C.ar    1  UNL1        0.0047
     21 C         142.0388  139.4124  169.4419 C.ar    1  UNL1        0.0561
     22 C         142.3616  139.6159  167.9912 C.ar    1  UNL1        0.0414
     23 C         143.0626  138.8160  170.3616 C.2     1  UNL1        0.2428
     24 N         143.7898  139.6887  171.3413 N.am    1  UNL1       -0.3253
     25 O         143.3593  137.3468  170.3018 O.2     1  UNL1       -0.2704
     26 H         143.5951  140.6530  171.3806 H       1  UNL1        0.1453
     27 H         144.4618  139.2972  171.9450 H       1  UNL1        0.1453
@<TRIPOS>BOND
     1    10    11    1
     2    11    12   ar
     3    12    13   ar
     4    13     9    1
     5     9     1    1
     6     1     2    1
     7     2     3    1
     8     3     4    1
     9     5     4    1
    10     5     6    1
    11     6     7    1
    12     7    16    1
    13    16    17    1
    14    17    18   ar
    15    18    19   ar
    16    19    20   ar
    17    20    21   ar
    18    21    23    1
    19    23    24   am
    20    23    25    2
    21    21    22   ar
    22     7     8    1
    23    13    14   ar
    24    14    15   ar
    25    15    11   ar
    26     5     1    1
    27    22    17   ar
    28     8     2    1
    29    24    26    1
    30    24    27    1
@<TRIPOS>MOLECULE
*****
 27 30 0 0 0
SMALL
GASTEIGER

@<TRIPOS>ATOM
      1 N         143.0111  140.3860  164.8803 N.3     1  UNL1       -0.2713
      2 C         143.8456  141.4070  164.1654 C.3     1  UNL1        0.0614
      3 C         145.1735  140.7835  163.8523 C.3     1  UNL1        0.0175
      4 C         145.1596  139.3771  164.3737 C.3     1  UNL1        0.0175
      5 C         143.8232  139.1314  165.0090 C.3     1  UNL1        0.0614
      6 C         142.4210  139.1697  165.5671 C.3     1  UNL1        0.0595
      7 C         141.7326  140.4870  165.3648 C.3     1  UNL1        0.1686
      8 C         142.4449  141.6056  164.6640 C.3     1  UNL1        0.0595
      9 C         141.6104  140.5846  165.3789 C.3     1  UNL1        0.1022
     10 C         137.7704  141.3789  162.0615 C.3     1  UNL1        0.1537
     11 N         138.5998  140.4814  162.9312 N.ar    1  UNL1       -0.2476
     12 C         139.6754  141.2369  163.6540 C.ar    1  UNL1        0.0938
     13 C         140.4453  140.2595  164.4918 C.ar    1  UNL1        0.0335
     14 C         139.8456  138.9000  164.2868 C.ar    1  UNL1        0.1187
     15 N         138.7050  139.0371  163.3224 N.ar    1  UNL1       -0.1679
     16 O         140.3319  140.6856  165.8635 O.3     1  UNL1       -0.4791
     17 C         140.0853  140.9613  167.3172 C.ar    1  UNL1        0.1385
     18 C         139.2929  139.9900  168.1409 C.ar    1  UNL1        0.0369
     19 C         139.0463  140.2656  169.5945 C.ar    1  UNL1        0.0033
     20 C         139.5922  141.5127  170.2245 C.ar    1  UNL1        0.0047
     21 C         140.3847  142.4840  169.4008 C.ar    1  UNL1        0.0561
     22 C         140.6312  142.2083  167.9471 C.ar    1  UNL1        0.0414
     23 C         140.9306  143.7310  170.0308 C.2     1  UNL1        0.2428
     24 N         140.0258  144.8996  170.2875 N.am    1  UNL1       -0.3253
     25 O         142.3813  143.8095  170.4043 O.2     1  UNL1       -0.2704
     26 H         139.0737  144.8481  170.0424 H       1  UNL1        0.1453
     27 H         140.3841  145.7181  170.7010 H       1  UNL1        0.1453
@<TRIPOS>BOND
     1    10    11    1
     2    11    12   ar
     3    12    13   ar
     4    13     9    1
     5     9     1    1
     6     1     2    1
     7     2     3    1
     8     3     4    1
     9     5     4    1
    10     5     6    1
    11     6     7    1
    12     7    16    1
    13    16    17    1
    14    17    18   ar
    15    18    19   ar
    16    19    20   ar
    17    20    21   ar
    18    21    23    1
    19    23    24   am
    20    23    25    2
    21    21    22   ar
    22     7     8    1
    23    13    14   ar
    24    14    15   ar
    25    15    11   ar
    26     5     1    1
    27    22    17   ar
    28     8     2    1
    29    24    26    1
    30    24    27    1
@<TRIPOS>MOLECULE
*****
 27 30 0 0 0
SMALL
GASTEIGER

@<TRIPOS>ATOM
      1 N         139.6990  142.9192  164.4168 N.3     1  UNL1       -0.2713
      2 C         138.9336  144.2034  164.5392 C.3     1  UNL1        0.0614
      3 C         137.6351  144.0408  163.8059 C.3     1  UNL1        0.0175
      4 C         137.5980  142.6562  163.2304 C.3     1  UNL1        0.0175
      5 C         138.8736  141.9629  163.6079 C.3     1  UNL1        0.0614
      6 C         140.2225  141.5261  164.1262 C.3     1  UNL1        0.0595
      7 C         140.9312  142.5858  164.9167 C.3     1  UNL1        0.1686
      8 C         140.2868  143.9244  165.1231 C.3     1  UNL1        0.0595
      9 C         141.0522  142.6402  165.0008 C.3     1  UNL1        0.1022
     10 C         145.0283  142.0003  161.8128 C.3     1  UNL1        0.1537
     11 N         144.2088  142.8363  162.7507 N.ar    1  UNL1       -0.2476
     12 C         143.0422  142.0756  163.3078 C.ar    1  UNL1        0.0938
     13 C         142.2892  142.9901  164.2279 C.ar    1  UNL1        0.0335
     14 C         142.9905  144.3160  164.2395 C.ar    1  UNL1        0.1187
     15 N         144.1769  144.2210  163.3266 N.ar    1  UNL1       -0.1679
     16 O         142.2845  142.3067  165.5006 O.3     1  UNL1       -0.4791
     17 C         142.4013  141.6021  166.8197 C.ar    1  UNL1        0.1385
     18 C         142.5749  140.1127  166.8616 C.ar    1  UNL1        0.0369
     19 C         142.6918  139.4081  168.1805 C.ar    1  UNL1        0.0033
     20 C         142.6350  140.1928  169.4576 C.ar    1  UNL1        0.0047
     21 C         142.4614  141.6821  169.4158 C.ar    1  UNL1        0.0561
     22 C         142.3446  142.3867  168.0967 C.ar    1  UNL1        0.0414
     23 C         142.4047  142.4667  170.6929 C.2     1  UNL1        0.2428
     24 N         143.3570  143.6036  170.9176 N.am    1  UNL1       -0.3253
     25 O         141.3956  142.1144  171.7454 O.2     1  UNL1       -0.2704
     26 H         144.0194  143.8348  170.2269 H       1  UNL1        0.1453
     27 H         143.3198  144.1186  171.7559 H       1  UNL1        0.1453
@<TRIPOS>BOND
     1    10    11    1
     2    11    12   ar
     3    12    13   ar
     4    13     9    1
     5     9     1    1
     6     1     2    1
     7     2     3    1
     8     3     4    1
     9     5     4    1
    10     5     6    1
    11     6     7    1
    12     7    16    1
    13    16    17    1
    14    17    18   ar
    15    18    19   ar
    16    19    20   ar
    17    20    21   ar
    18    21    23    1
    19    23    24   am
    20    23    25    2
    21    21    22   ar
    22     7     8    1
    23    13    14   ar
    24    14    15   ar
    25    15    11   ar
    26     5     1    1
    27    22    17   ar
    28     8     2    1
    29    24    26    1
    30    24    27    1
@<TRIPOS>MOLECULE
*****
 27 30 0 0 0
SMALL
GASTEIGER

@<TRIPOS>ATOM
      1 N         139.5493  142.9473  164.4909 N.3     1  UNL1       -0.2713
      2 C         138.0724  142.8477  164.2482 C.3     1  UNL1        0.0614
      3 C         137.6502  144.0510  163.4584 C.3     1  UNL1        0.0175
      4 C         138.8661  144.8943  163.2130 C.3     1  UNL1        0.0175
      5 C         140.0398  144.2122  163.8511 C.3     1  UNL1        0.0614
      6 C         141.0174  143.3172  164.5738 C.3     1  UNL1        0.0595
      7 C         140.3839  142.0912  165.1617 C.3     1  UNL1        0.1686
      8 C         138.9114  141.8565  164.9989 C.3     1  UNL1        0.0595
      9 C         140.3883  141.9561  165.2416 C.3     1  UNL1        0.1022
     10 C         140.9938  137.1622  163.4999 C.3     1  UNL1        0.1537
     11 N         141.4397  138.5892  163.6219 N.ar    1  UNL1       -0.2476
     12 C         140.4932  139.4044  164.4522 C.ar    1  UNL1        0.0938
     13 C         141.0217  140.8069  164.5149 C.ar    1  UNL1        0.0335
     14 C         142.2947  140.8583  163.7233 C.ar    1  UNL1        0.1187
     15 N         142.5531  139.4877  163.1714 N.ar    1  UNL1       -0.1679
     16 O         141.2230  141.1000  165.9124 O.3     1  UNL1       -0.4791
     17 C         141.7266  141.4315  167.2859 C.ar    1  UNL1        0.1385
     18 C         143.0488  142.1197  167.4540 C.ar    1  UNL1        0.0369
     19 C         143.5524  142.4513  168.8274 C.ar    1  UNL1        0.0033
     20 C         142.7339  142.0947  170.0328 C.ar    1  UNL1        0.0047
     21 C         141.4117  141.4065  169.8647 C.ar    1  UNL1        0.0561
     22 C         140.9081  141.0749  168.4912 C.ar    1  UNL1        0.0414
     23 C         140.5932  141.0499  171.0700 C.2     1  UNL1        0.2428
     24 N         139.9619  139.6931  171.1733 N.am    1  UNL1       -0.3253
     25 O         140.4060  142.0501  172.1722 O.2     1  UNL1       -0.2704
     26 H         140.0848  139.0367  170.4499 H       1  UNL1        0.1453
     27 H         139.4247  139.4591  171.9644 H       1  UNL1        0.1453
@<TRIPOS>BOND
     1    10    11    1
     2    11    12   ar
     3    12    13   ar
     4    13     9    1
     5     9     1    1
     6     1     2    1
     7     2     3    1
     8     3     4    1
     9     5     4    1
    10     5     6    1
    11     6     7    1
    12     7    16    1
    13    16    17    1
    14    17    18   ar
    15    18    19   ar
    16    19    20   ar
    17    20    21   ar
    18    21    23    1
    19    23    24   am
    20    23    25    2
    21    21    22   ar
    22     7     8    1
    23    13    14   ar
    24    14    15   ar
    25    15    11   ar
    26     5     1    1
    27    22    17   ar
    28     8     2    1
    29    24    26    1
    30    24    27    1
@<TRIPOS>MOLECULE
*****
 27 30 0 0 0
SMALL
GASTEIGER

@<TRIPOS>ATOM
      1 N         142.5262  143.1105  164.8084 N.3     1  UNL1       -0.2713
      2 C         141.5424  144.0029  164.1114 C.3     1  UNL1        0.0614
      3 C         142.2689  145.2393  163.6715 C.3     1  UNL1        0.0175
      4 C         143.7016  145.1110  164.0966 C.3     1  UNL1        0.0175
      5 C         143.8607  143.7954  164.7992 C.3     1  UNL1        0.0614
      6 C         143.7257  142.4391  165.4484 C.3     1  UNL1        0.0595
      7 C         142.3358  141.8793  165.3806 C.3     1  UNL1        0.1686
      8 C         141.2441  142.6612  164.7121 C.3     1  UNL1        0.0595
      9 C         142.2279  141.7688  165.4091 C.3     1  UNL1        0.1022
     10 C         140.9417  138.0659  162.0900 C.3     1  UNL1        0.1537
     11 N         141.9086  138.7137  163.0363 N.ar    1  UNL1       -0.2476
     12 C         141.3406  139.9555  163.6569 C.ar    1  UNL1        0.0938
     13 C         142.3750  140.5268  164.5809 C.ar    1  UNL1        0.0335
     14 C         143.5822  139.6380  164.5313 C.ar    1  UNL1        0.1187
     15 N         143.2941  138.5174  163.5767 N.ar    1  UNL1       -0.1679
     16 O         142.0375  140.5375  165.9813 O.3     1  UNL1       -0.4791
     17 C         141.1638  140.4373  167.1964 C.ar    1  UNL1        0.1385
     18 C         139.7508  139.9509  167.0662 C.ar    1  UNL1        0.0369
     19 C         138.8771  139.8507  168.2813 C.ar    1  UNL1        0.0033
     20 C         139.4164  140.2369  169.6267 C.ar    1  UNL1        0.0047
     21 C         140.8293  140.7233  169.7569 C.ar    1  UNL1        0.0561
     22 C         141.7031  140.8235  168.5417 C.ar    1  UNL1        0.0414
     23 C         141.3686  141.1094  171.1023 C.2     1  UNL1        0.2428
     24 N         142.6345  140.4853  171.6103 N.am    1  UNL1       -0.3253
     25 O         140.6419  142.1198  171.9398 O.2     1  UNL1       -0.2704
     26 H         143.1114  139.8222  171.0607 H       1  UNL1        0.1453
     27 H         142.9884  140.7387  172.4933 H       1  UNL1        0.1453
@<TRIPOS>BOND
     1    10    11    1
     2    11    12   ar
     3    12    13   ar
     4    13     9    1
     5     9     1    1
     6     1     2    1
     7     2     3    1
     8     3     4    1
     9     5     4    1
    10     5     6    1
    11     6     7    1
    12     7    16    1
    13    16    17    1
    14    17    18   ar
    15    18    19   ar
    16    19    20   ar
    17    20    21   ar
    18    21    23    1
    19    23    24   am
    20    23    25    2
    21    21    22   ar
    22     7     8    1
    23    13    14   ar
    24    14    15   ar
    25    15    11   ar
    26     5     1    1
    27    22    17   ar
    28     8     2    1
    29    24    26    1
    30    24    27    1
