@<TRIPOS>MOLECULE
*****
 35 37 0 0 0
SMALL
GASTEIGER

@<TRIPOS>ATOM
      1 C         138.7939  140.1694  163.1237 C.3     1  UNL1        0.0927
      2 C         138.9400  138.8186  162.4882 C.3     1  UNL1        0.0777
      3 N         138.9561  137.5856  163.3424 N.3     1  UNL1       -0.2967
      4 C         138.8261  137.7035  164.8320 C.3     1  UNL1        0.0777
      5 C         138.6800  139.0543  165.4675 C.3     1  UNL1        0.0933
      6 C         138.6639  140.2873  164.6134 C.3     1  UNL1        0.0210
      7 H         139.8416  137.1130  163.1606 H       1  UNL1        0.1233
      8 N         140.0597  142.1171  161.9600 N.am    1  UNL1       -0.3035
      9 C         138.7778  141.4023  162.2695 C.2     1  UNL1        0.2234
     10 O         137.4799  141.9205  161.7249 O.2     1  UNL1       -0.2751
     11 H         140.9116  141.7770  162.3175 H       1  UNL1        0.1495
     12 C         140.0436  143.3500  161.1058 C.3     1  UNL1        0.1011
     13 C         140.2925  143.2436  159.6305 C.3     1  UNL1        0.1615
     14 O         141.6836  143.3995  159.0914 O.3     1  UNL1       -0.3520
     15 C         143.5432  143.1818  160.8927 C.3     1  UNL1        0.0346
     16 C         142.8158  142.6288  159.7031 C.3     1  UNL1        0.1423
     17 C         139.7786  144.6894  161.7271 C.3     1  UNL1        0.0221
     18 C         140.1765  144.9481  163.1500 C.3     1  UNL1        0.0017
     19 C         139.1680  144.7972  164.2501 C.3     1  UNL1        0.0001
     20 C         141.5829  145.3577  163.4728 C.3     1  UNL1        0.0001
     21 C         138.5500  139.1723  166.9573 C.2     1  UNL1        0.2312
     22 O         137.3861  138.5397  167.6609 O.2     1  UNL1       -0.2745
     23 N         139.5839  139.9228  167.7433 N.am    1  UNL1       -0.2455
     24 C         140.7478  140.5553  167.0396 C.ar    1  UNL1        0.1373
     25 C         140.7602  142.0345  166.7912 C.ar    1  UNL1        0.0344
     26 C         141.9242  142.6671  166.0875 C.ar    1  UNL1        0.0001
     27 C         143.0756  141.8205  165.6323 C.ar    1  UNL1       -0.0033
     28 C         143.0632  140.3412  165.8807 C.ar    1  UNL1        0.0960
     29 N         141.8993  139.7086  166.5844 N.ar    1  UNL1       -0.2291
     30 C         144.2396  142.4531  164.9286 C.3     1  UNL1        0.0239
     31 C         144.5204  143.9155  165.1090 C.3     1  UNL1        0.0047
     32 C         145.1227  141.6233  164.0446 C.3     1  UNL1        0.0047
     33 C         139.4539  140.0407  169.2330 C.3     1  UNL1        0.0812
     34 C         138.6150  140.3136  170.4462 C.3     1  UNL1        0.0219
     35 C         140.0675  139.9721  170.6001 C.3     1  UNL1        0.0219
@<TRIPOS>BOND
     1    15    16    1
     2    16    14    1
     3    14    13    1
     4    12    13    1
     5    12    17    1
     6    17    18    1
     7    18    19    1
     8    18    20    1
     9    12     8    1
    10     8     9   am
    11     9    10    2
    12     1     9    1
    13     1     2    1
    14     2     3    1
    15     3     4    1
    16     4     5    1
    17     5    21    1
    18    21    22    2
    19    21    23   am
    20    23    24    1
    21    24    25   ar
    22    25    26   ar
    23    26    27   ar
    24    27    30    1
    25    30    31    1
    26    30    32    1
    27    27    28   ar
    28    28    29   ar
    29    23    33    1
    30    33    34    1
    31    34    35    1
    32     5     6    1
    33     6     1    1
    34    29    24   ar
    35    35    33    1
    36     8    11    1
    37     3     7    1
@<TRIPOS>MOLECULE
*****
 35 37 0 0 0
SMALL
GASTEIGER

@<TRIPOS>ATOM
      1 C         142.1706  138.9988  162.6383 C.3     1  UNL1        0.0927
      2 C         143.4607  139.2711  161.9232 C.3     1  UNL1        0.0777
      3 N         144.7401  139.3781  162.6989 N.3     1  UNL1       -0.2967
      4 C         144.7294  139.2128  164.1897 C.3     1  UNL1        0.0777
      5 C         143.4393  138.9405  164.9048 C.3     1  UNL1        0.0933
      6 C         142.1599  138.8335  164.1291 C.3     1  UNL1        0.0210
      7 H         145.1237  140.3038  162.5080 H       1  UNL1        0.1233
      8 N         140.3970  140.0627  161.0660 N.am    1  UNL1       -0.3035
      9 C         140.8912  138.8918  161.8626 C.2     1  UNL1        0.2234
     10 O         140.1061  137.6139  161.8835 O.2     1  UNL1       -0.2751
     11 H         140.9123  140.9015  161.0523 H       1  UNL1        0.1495
     12 C         139.1176  139.9558  160.2903 C.3     1  UNL1        0.1011
     13 C         139.1401  139.4779  158.8686 C.3     1  UNL1        0.1615
     14 O         139.8033  138.1771  158.5251 O.3     1  UNL1       -0.3520
     15 C         141.5937  137.2588  156.8815 C.3     1  UNL1        0.0346
     16 C         141.2134  138.1663  158.0138 C.3     1  UNL1        0.1423
     17 C         137.8156  140.3266  160.9363 C.3     1  UNL1        0.0221
     18 C         137.8018  141.2426  162.1241 C.3     1  UNL1        0.0017
     19 C         137.9013  142.7264  161.9281 C.3     1  UNL1        0.0001
     20 C         137.6884  140.6748  163.5079 C.3     1  UNL1        0.0001
     21 C         143.4285  138.7751  166.3956 C.2     1  UNL1        0.2312
     22 O         144.1508  137.6223  167.0276 O.2     1  UNL1       -0.2745
     23 N         142.6955  139.7626  167.2545 N.am    1  UNL1       -0.2455
     24 C         141.9733  140.9154  166.6225 C.ar    1  UNL1        0.1373
     25 C         140.4767  140.9905  166.6898 C.ar    1  UNL1        0.0344
     26 C         139.7545  142.1433  166.0578 C.ar    1  UNL1        0.0001
     27 C         140.5288  143.2210  165.3586 C.ar    1  UNL1       -0.0033
     28 C         142.0254  143.1459  165.2913 C.ar    1  UNL1        0.0960
     29 N         142.7477  141.9931  165.9232 N.ar    1  UNL1       -0.2291
     30 C         139.8065  144.3738  164.7266 C.3     1  UNL1        0.0239
     31 C         138.5277  144.8778  165.3273 C.3     1  UNL1        0.0047
     32 C         140.3630  145.0227  163.4941 C.3     1  UNL1        0.0047
     33 C         142.6848  139.5972  168.7453 C.3     1  UNL1        0.0812
     34 C         142.7752  140.1928  170.1190 C.3     1  UNL1        0.0219
     35 C         142.5757  138.7153  169.9538 C.3     1  UNL1        0.0219
@<TRIPOS>BOND
     1    15    16    1
     2    16    14    1
     3    14    13    1
     4    12    13    1
     5    12    17    1
     6    17    18    1
     7    18    19    1
     8    18    20    1
     9    12     8    1
    10     8     9   am
    11     9    10    2
    12     1     9    1
    13     1     2    1
    14     2     3    1
    15     3     4    1
    16     4     5    1
    17     5    21    1
    18    21    22    2
    19    21    23   am
    20    23    24    1
    21    24    25   ar
    22    25    26   ar
    23    26    27   ar
    24    27    30    1
    25    30    31    1
    26    30    32    1
    27    27    28   ar
    28    28    29   ar
    29    23    33    1
    30    33    34    1
    31    34    35    1
    32     5     6    1
    33     6     1    1
    34    29    24   ar
    35    35    33    1
    36     8    11    1
    37     3     7    1
@<TRIPOS>MOLECULE
*****
 35 37 0 0 0
SMALL
GASTEIGER

@<TRIPOS>ATOM
      1 C         139.0808  140.1400  162.9271 C.3     1  UNL1        0.0927
      2 C         139.0910  138.7815  162.2912 C.3     1  UNL1        0.0777
      3 N         138.9797  137.5530  163.1447 N.3     1  UNL1       -0.2967
      4 C         138.8582  137.6830  164.6340 C.3     1  UNL1        0.0777
      5 C         138.8479  139.0415  165.2699 C.3     1  UNL1        0.0933
      6 C         138.9592  140.2700  164.4165 C.3     1  UNL1        0.0210
      7 H         139.8132  136.9932  162.9650 H       1  UNL1        0.1233
      8 N         140.2116  142.4190  162.4006 N.am    1  UNL1       -0.3035
      9 C         139.1921  141.3685  162.0736 C.2     1  UNL1        0.2234
     10 O         138.2840  141.5464  160.8931 O.2     1  UNL1       -0.2751
     11 H         140.8077  142.3022  163.1754 H       1  UNL1        0.1495
     12 C         140.3229  143.6475  161.5471 C.3     1  UNL1        0.1011
     13 C         139.5315  144.8742  161.8915 C.3     1  UNL1        0.1615
     14 O         138.1092  144.7449  162.3502 O.3     1  UNL1       -0.3520
     15 C         138.7206  144.7671  164.8752 C.3     1  UNL1        0.0346
     16 C         137.8108  144.3376  163.7627 C.3     1  UNL1        0.1423
     17 C         141.2258  143.6492  160.3492 C.3     1  UNL1        0.0221
     18 C         142.3197  142.6294  160.2330 C.3     1  UNL1        0.0017
     19 C         142.0803  141.3554  159.4785 C.3     1  UNL1        0.0001
     20 C         143.6530  142.8838  160.8716 C.3     1  UNL1        0.0001
     21 C         138.7263  139.1715  166.7594 C.2     1  UNL1        0.2312
     22 O         137.6137  138.4744  167.4847 O.2     1  UNL1       -0.2745
     23 N         139.7173  139.9986  167.5234 N.am    1  UNL1       -0.2455
     24 C         140.8299  140.6957  166.7980 C.ar    1  UNL1        0.1373
     25 C         140.7520  142.1725  166.5468 C.ar    1  UNL1        0.0344
     26 C         141.8646  142.8696  165.8214 C.ar    1  UNL1        0.0001
     27 C         143.0551  142.0900  165.3473 C.ar    1  UNL1       -0.0033
     28 C         143.1331  140.6132  165.5986 C.ar    1  UNL1        0.0960
     29 N         142.0205  139.9161  166.3240 N.ar    1  UNL1       -0.2291
     30 C         144.1677  142.7871  164.6220 C.3     1  UNL1        0.0239
     31 C         144.0929  144.2650  164.3766 C.3     1  UNL1        0.0047
     32 C         145.3551  142.0063  164.1420 C.3     1  UNL1        0.0047
     33 C         139.5957  140.1287  169.0129 C.3     1  UNL1        0.0812
     34 C         140.1972  140.0028  170.3812 C.3     1  UNL1        0.0219
     35 C         138.7837  140.4797  170.2242 C.3     1  UNL1        0.0219
@<TRIPOS>BOND
     1    15    16    1
     2    16    14    1
     3    14    13    1
     4    12    13    1
     5    12    17    1
     6    17    18    1
     7    18    19    1
     8    18    20    1
     9    12     8    1
    10     8     9   am
    11     9    10    2
    12     1     9    1
    13     1     2    1
    14     2     3    1
    15     3     4    1
    16     4     5    1
    17     5    21    1
    18    21    22    2
    19    21    23   am
    20    23    24    1
    21    24    25   ar
    22    25    26   ar
    23    26    27   ar
    24    27    30    1
    25    30    31    1
    26    30    32    1
    27    27    28   ar
    28    28    29   ar
    29    23    33    1
    30    33    34    1
    31    34    35    1
    32     5     6    1
    33     6     1    1
    34    29    24   ar
    35    35    33    1
    36     8    11    1
    37     3     7    1
@<TRIPOS>MOLECULE
*****
 35 37 0 0 0
SMALL
GASTEIGER

@<TRIPOS>ATOM
      1 C         142.1883  138.9029  162.7313 C.3     1  UNL1        0.0927
      2 C         143.4646  139.2385  162.0182 C.3     1  UNL1        0.0777
      3 N         144.7313  139.4307  162.7982 N.3     1  UNL1       -0.2967
      4 C         144.7219  139.2874  164.2912 C.3     1  UNL1        0.0777
      5 C         143.4456  138.9518  165.0043 C.3     1  UNL1        0.0933
      6 C         142.1788  138.7596  164.2244 C.3     1  UNL1        0.0210
      7 H         145.0619  140.3740  162.5950 H       1  UNL1        0.1233
      8 N         140.3436  139.8509  161.1667 N.am    1  UNL1       -0.3035
      9 C         140.9216  138.7107  161.9513 C.2     1  UNL1        0.2234
     10 O         140.2328  137.3782  161.9560 O.2     1  UNL1       -0.2751
     11 H         140.7956  140.7255  161.1636 H       1  UNL1        0.1495
     12 C         139.0768  139.6587  160.3867 C.3     1  UNL1        0.1011
     13 C         137.7478  139.8400  161.0581 C.3     1  UNL1        0.1615
     14 O         137.6852  140.1889  162.5156 O.3     1  UNL1       -0.3520
     15 C         137.8724  142.7519  162.1338 C.3     1  UNL1        0.0346
     16 C         137.3644  141.5920  162.9378 C.3     1  UNL1        0.1423
     17 C         139.1391  139.2851  158.9352 C.3     1  UNL1        0.0221
     18 C         140.4008  139.5111  158.1561 C.3     1  UNL1        0.0017
     19 C         141.3361  138.3678  157.8952 C.3     1  UNL1        0.0001
     20 C         140.7272  140.8804  157.6379 C.3     1  UNL1        0.0001
     21 C         143.4361  138.8084  166.4975 C.2     1  UNL1        0.2312
     22 O         144.1560  137.6632  167.1456 O.2     1  UNL1       -0.2745
     23 N         142.7066  139.8103  167.3425 N.am    1  UNL1       -0.2455
     24 C         141.9867  140.9556  166.6944 C.ar    1  UNL1        0.1373
     25 C         140.4883  141.0155  166.7290 C.ar    1  UNL1        0.0344
     26 C         139.7684  142.1608  166.0809 C.ar    1  UNL1        0.0001
     27 C         140.5468  143.2462  165.3983 C.ar    1  UNL1       -0.0033
     28 C         142.0452  143.1863  165.3637 C.ar    1  UNL1        0.0960
     29 N         142.7652  142.0410  166.0118 N.ar    1  UNL1       -0.2291
     30 C         139.8268  144.3915  164.7502 C.3     1  UNL1        0.0239
     31 C         140.3995  145.0405  163.5251 C.3     1  UNL1        0.0047
     32 C         138.5342  144.8877  165.3272 C.3     1  UNL1        0.0047
     33 C         142.6971  139.6670  168.8356 C.3     1  UNL1        0.0812
     34 C         142.3756  138.8648  170.0616 C.3     1  UNL1        0.0219
     35 C         143.0022  140.2209  170.1958 C.3     1  UNL1        0.0219
@<TRIPOS>BOND
     1    15    16    1
     2    16    14    1
     3    14    13    1
     4    12    13    1
     5    12    17    1
     6    17    18    1
     7    18    19    1
     8    18    20    1
     9    12     8    1
    10     8     9   am
    11     9    10    2
    12     1     9    1
    13     1     2    1
    14     2     3    1
    15     3     4    1
    16     4     5    1
    17     5    21    1
    18    21    22    2
    19    21    23   am
    20    23    24    1
    21    24    25   ar
    22    25    26   ar
    23    26    27   ar
    24    27    30    1
    25    30    31    1
    26    30    32    1
    27    27    28   ar
    28    28    29   ar
    29    23    33    1
    30    33    34    1
    31    34    35    1
    32     5     6    1
    33     6     1    1
    34    29    24   ar
    35    35    33    1
    36     8    11    1
    37     3     7    1
@<TRIPOS>MOLECULE
*****
 35 37 0 0 0
SMALL
GASTEIGER

@<TRIPOS>ATOM
      1 C         140.2209  138.7129  164.7353 C.3     1  UNL1        0.0927
      2 C         138.7528  138.4559  164.9046 C.3     1  UNL1        0.0777
      3 N         138.0725  138.8131  166.1929 N.3     1  UNL1       -0.2967
      4 C         138.8603  139.4275  167.3118 C.3     1  UNL1        0.0777
      5 C         140.3284  139.6845  167.1424 C.3     1  UNL1        0.0933
      6 C         141.0086  139.3272  165.8542 C.3     1  UNL1        0.0210
      7 H         137.6636  137.9531  166.5583 H       1  UNL1        0.1233
      8 N         141.5589  139.4239  162.6248 N.am    1  UNL1       -0.3035
      9 C         140.9012  138.3556  163.4471 C.2     1  UNL1        0.2234
     10 O         140.9237  136.9300  162.9811 O.2     1  UNL1       -0.2751
     11 H         141.5441  140.3595  162.9307 H       1  UNL1        0.1495
     12 C         142.2392  139.0666  161.3366 C.3     1  UNL1        0.1011
     13 C         143.7360  138.9917  161.2745 C.3     1  UNL1        0.1615
     14 O         144.5635  140.1775  161.6735 O.3     1  UNL1       -0.3520
     15 C         145.7477  141.5718  163.5183 C.3     1  UNL1        0.0346
     16 C         144.8354  140.4485  163.1235 C.3     1  UNL1        0.1423
     17 C         141.4226  138.7841  160.1104 C.3     1  UNL1        0.0221
     18 C         140.0979  139.4614  159.9192 C.3     1  UNL1        0.0017
     19 C         138.8411  138.8007  160.4029 C.3     1  UNL1        0.0001
     20 C         140.0300  140.7993  159.2442 C.3     1  UNL1        0.0001
     21 C         141.1162  140.2988  168.2614 C.2     1  UNL1        0.2312
     22 O         141.2828  139.5591  169.5557 O.2     1  UNL1       -0.2745
     23 N         141.7374  141.6528  168.0860 N.am    1  UNL1       -0.2455
     24 C         141.5709  142.3925  166.7918 C.ar    1  UNL1        0.1373
     25 C         142.7279  142.5183  165.8455 C.ar    1  UNL1        0.0344
     26 C         142.5613  143.2579  164.5513 C.ar    1  UNL1        0.0001
     27 C         141.2377  143.8719  164.2033 C.ar    1  UNL1       -0.0033
     28 C         140.0806  143.7461  165.1495 C.ar    1  UNL1        0.0960
     29 N         140.2472  143.0064  166.4438 N.ar    1  UNL1       -0.2291
     30 C         141.0712  144.6116  162.9090 C.3     1  UNL1        0.0239
     31 C         139.8650  145.4757  162.6889 C.3     1  UNL1        0.0047
     32 C         142.1107  144.4872  161.8349 C.3     1  UNL1        0.0047
     33 C         142.5253  142.2671  169.2050 C.3     1  UNL1        0.0812
     34 C         142.5925  143.1574  170.4103 C.3     1  UNL1        0.0219
     35 C         143.8226  142.4409  169.9376 C.3     1  UNL1        0.0219
@<TRIPOS>BOND
     1    15    16    1
     2    16    14    1
     3    14    13    1
     4    12    13    1
     5    12    17    1
     6    17    18    1
     7    18    19    1
     8    18    20    1
     9    12     8    1
    10     8     9   am
    11     9    10    2
    12     1     9    1
    13     1     2    1
    14     2     3    1
    15     3     4    1
    16     4     5    1
    17     5    21    1
    18    21    22    2
    19    21    23   am
    20    23    24    1
    21    24    25   ar
    22    25    26   ar
    23    26    27   ar
    24    27    30    1
    25    30    31    1
    26    30    32    1
    27    27    28   ar
    28    28    29   ar
    29    23    33    1
    30    33    34    1
    31    34    35    1
    32     5     6    1
    33     6     1    1
    34    29    24   ar
    35    35    33    1
    36     8    11    1
    37     3     7    1
@<TRIPOS>MOLECULE
*****
 35 37 0 0 0
SMALL
GASTEIGER

@<TRIPOS>ATOM
      1 C         140.9888  138.8032  164.4517 C.3     1  UNL1        0.0927
      2 C         142.3273  138.1293  164.3873 C.3     1  UNL1        0.0777
      3 N         143.2766  138.2348  165.5439 N.3     1  UNL1       -0.2967
      4 C         142.8873  139.0141  166.7650 C.3     1  UNL1        0.0777
      5 C         141.5488  139.6880  166.8294 C.3     1  UNL1        0.0933
      6 C         140.5995  139.5825  165.6728 C.3     1  UNL1        0.0210
      7 H         144.1323  138.6580  165.1849 H       1  UNL1        0.1233
      8 N         140.2269  139.5699  162.0892 N.am    1  UNL1       -0.3035
      9 C         140.0396  138.6977  163.2951 C.2     1  UNL1        0.2234
     10 O         138.9030  137.7201  163.3443 O.2     1  UNL1       -0.2751
     11 H         140.9729  140.2115  162.0568 H       1  UNL1        0.1495
     12 C         139.2777  139.4644  160.9325 C.3     1  UNL1        0.1011
     13 C         139.6157  138.5891  159.7623 C.3     1  UNL1        0.1615
     14 O         141.0501  138.3079  159.4256 O.3     1  UNL1       -0.3520
     15 C         141.4413  137.4057  157.0208 C.3     1  UNL1        0.0346
     16 C         141.5463  138.5148  158.0252 C.3     1  UNL1        0.1423
     17 C         137.9904  140.2344  160.9461 C.3     1  UNL1        0.0221
     18 C         137.8485  141.4427  161.8235 C.3     1  UNL1        0.0017
     19 C         137.3190  141.2979  163.2195 C.3     1  UNL1        0.0001
     20 C         138.2360  142.7958  161.3050 C.3     1  UNL1        0.0001
     21 C         141.1594  140.4674  168.0505 C.2     1  UNL1        0.2312
     22 O         141.0652  139.7801  169.3805 O.2     1  UNL1       -0.2745
     23 N         140.8643  141.9340  167.9417 N.am    1  UNL1       -0.2455
     24 C         140.9586  142.6213  166.6117 C.ar    1  UNL1        0.1373
     25 C         139.7230  143.1699  165.9618 C.ar    1  UNL1        0.0344
     26 C         139.8173  143.8572  164.6318 C.ar    1  UNL1        0.0001
     27 C         141.1470  143.9959  163.9519 C.ar    1  UNL1       -0.0033
     28 C         142.3827  143.4473  164.6018 C.ar    1  UNL1        0.0960
     29 N         142.2884  142.7600  165.9317 N.ar    1  UNL1       -0.2291
     30 C         141.2413  144.6832  162.6219 C.3     1  UNL1        0.0239
     31 C         142.2857  144.2606  161.6316 C.3     1  UNL1        0.0047
     32 C         140.2911  145.7931  162.2822 C.3     1  UNL1        0.0047
     33 C         140.4750  142.7134  169.1628 C.3     1  UNL1        0.0812
     34 C         139.8029  142.7794  170.5021 C.3     1  UNL1        0.0219
     35 C         140.4727  143.9973  169.9384 C.3     1  UNL1        0.0219
@<TRIPOS>BOND
     1    15    16    1
     2    16    14    1
     3    14    13    1
     4    12    13    1
     5    12    17    1
     6    17    18    1
     7    18    19    1
     8    18    20    1
     9    12     8    1
    10     8     9   am
    11     9    10    2
    12     1     9    1
    13     1     2    1
    14     2     3    1
    15     3     4    1
    16     4     5    1
    17     5    21    1
    18    21    22    2
    19    21    23   am
    20    23    24    1
    21    24    25   ar
    22    25    26   ar
    23    26    27   ar
    24    27    30    1
    25    30    31    1
    26    30    32    1
    27    27    28   ar
    28    28    29   ar
    29    23    33    1
    30    33    34    1
    31    34    35    1
    32     5     6    1
    33     6     1    1
    34    29    24   ar
    35    35    33    1
    36     8    11    1
    37     3     7    1
@<TRIPOS>MOLECULE
*****
 35 37 0 0 0
SMALL
GASTEIGER

@<TRIPOS>ATOM
      1 C         143.0428  139.2538  162.4471 C.3     1  UNL1        0.0927
      2 C         142.1429  138.1587  161.9563 C.3     1  UNL1        0.0777
      3 N         141.5208  137.2050  162.9328 N.3     1  UNL1       -0.2967
      4 C         141.7987  137.3463  164.4000 C.3     1  UNL1        0.0777
      5 C         142.6986  138.4413  164.8908 C.3     1  UNL1        0.0933
      6 C         143.3207  139.3951  163.9143 C.3     1  UNL1        0.0210
      7 H         141.8246  136.2690  162.6643 H       1  UNL1        0.1233
      8 N         142.9747  140.5092  160.1735 N.am    1  UNL1       -0.3035
      9 C         143.6648  140.2075  161.4707 C.2     1  UNL1        0.2234
     10 O         144.9770  140.8596  161.7914 O.2     1  UNL1       -0.2751
     11 H         142.1134  140.0812  159.9630 H       1  UNL1        0.1495
     12 C         143.5967  141.4630  159.1971 C.3     1  UNL1        0.1011
     13 C         143.3189  142.9331  159.3039 C.3     1  UNL1        0.1615
     14 O         143.3749  143.6118  160.6404 O.3     1  UNL1       -0.3520
     15 C         141.1946  143.1156  161.9633 C.3     1  UNL1        0.0346
     16 C         142.1118  144.0934  161.2905 C.3     1  UNL1        0.1423
     17 C         144.4967  140.9465  158.1138 C.3     1  UNL1        0.0221
     18 C         144.0033  140.8758  156.6991 C.3     1  UNL1        0.0017
     19 C         144.1719  142.0539  155.7862 C.3     1  UNL1        0.0001
     20 C         143.3412  139.6268  156.1973 C.3     1  UNL1        0.0001
     21 C         142.9766  138.5827  166.3580 C.2     1  UNL1        0.2312
     22 O         143.9817  137.6878  167.0206 O.2     1  UNL1       -0.2745
     23 N         142.2494  139.6188  167.1627 N.am    1  UNL1       -0.2455
     24 C         141.2442  140.5136  166.5002 C.ar    1  UNL1        0.1373
     25 C         141.5795  141.9515  166.2354 C.ar    1  UNL1        0.0344
     26 C         140.5744  142.8463  165.5729 C.ar    1  UNL1        0.0001
     27 C         139.2339  142.3033  165.1752 C.ar    1  UNL1       -0.0033
     28 C         138.8985  140.8654  165.4399 C.ar    1  UNL1        0.0960
     29 N         139.9037  139.9706  166.1025 N.ar    1  UNL1       -0.2291
     30 C         138.2287  143.1981  164.5126 C.3     1  UNL1        0.0239
     31 C         137.4814  142.7202  163.3030 C.3     1  UNL1        0.0047
     32 C         137.9709  144.5708  165.0597 C.3     1  UNL1        0.0047
     33 C         142.5273  139.7601  168.6300 C.3     1  UNL1        0.0812
     34 C         142.5513  139.1729  170.0100 C.3     1  UNL1        0.0219
     35 C         142.9847  140.5922  169.7913 C.3     1  UNL1        0.0219
@<TRIPOS>BOND
     1    15    16    1
     2    16    14    1
     3    14    13    1
     4    12    13    1
     5    12    17    1
     6    17    18    1
     7    18    19    1
     8    18    20    1
     9    12     8    1
    10     8     9   am
    11     9    10    2
    12     1     9    1
    13     1     2    1
    14     2     3    1
    15     3     4    1
    16     4     5    1
    17     5    21    1
    18    21    22    2
    19    21    23   am
    20    23    24    1
    21    24    25   ar
    22    25    26   ar
    23    26    27   ar
    24    27    30    1
    25    30    31    1
    26    30    32    1
    27    27    28   ar
    28    28    29   ar
    29    23    33    1
    30    33    34    1
    31    34    35    1
    32     5     6    1
    33     6     1    1
    34    29    24   ar
    35    35    33    1
    36     8    11    1
    37     3     7    1
@<TRIPOS>MOLECULE
*****
 35 37 0 0 0
SMALL
GASTEIGER

@<TRIPOS>ATOM
      1 C         142.8673  139.2220  162.5589 C.3     1  UNL1        0.0927
      2 C         142.0224  138.0687  162.1051 C.3     1  UNL1        0.0777
      3 N         141.4858  137.0914  163.1086 N.3     1  UNL1       -0.2967
      4 C         141.7942  137.2675  164.5659 C.3     1  UNL1        0.0777
      5 C         142.6391  138.4208  165.0197 C.3     1  UNL1        0.0933
      6 C         143.1756  139.3981  164.0162 C.3     1  UNL1        0.0210
      7 H         141.8384  136.1722  162.8420 H       1  UNL1        0.1233
      8 N         142.4911  140.7910  160.5226 N.am    1  UNL1       -0.3035
      9 C         143.4038  140.1993  161.5553 C.2     1  UNL1        0.2234
     10 O         144.8531  140.5848  161.5846 O.2     1  UNL1       -0.2751
     11 H         141.5398  140.5380  160.5033 H       1  UNL1        0.1495
     12 C         143.0276  141.7683  159.5190 C.3     1  UNL1        0.1011
     13 C         143.4761  141.2885  158.1705 C.3     1  UNL1        0.1615
     14 O         144.9374  141.2563  157.8337 O.3     1  UNL1       -0.3520
     15 C         146.9248  142.3501  156.5672 C.3     1  UNL1        0.0346
     16 C         145.4580  142.0555  156.6760 C.3     1  UNL1        0.1423
     17 C         143.1157  143.2255  159.8641 C.3     1  UNL1        0.0221
     18 C         142.5703  143.7211  161.1706 C.3     1  UNL1        0.0017
     19 C         141.1054  144.0117  161.3099 C.3     1  UNL1        0.0001
     20 C         143.4900  143.9261  162.3378 C.3     1  UNL1        0.0001
     21 C         142.9474  138.5969  166.4772 C.2     1  UNL1        0.2312
     22 O         143.9301  137.6858  167.1512 O.2     1  UNL1       -0.2745
     23 N         142.2732  139.6840  167.2604 N.am    1  UNL1       -0.2455
     24 C         141.2906  140.5951  166.5863 C.ar    1  UNL1        0.1373
     25 C         141.6787  142.0066  166.2592 C.ar    1  UNL1        0.0344
     26 C         140.6961  142.9176  165.5851 C.ar    1  UNL1        0.0001
     27 C         139.3253  142.4172  165.2382 C.ar    1  UNL1       -0.0033
     28 C         138.9370  141.0057  165.5653 C.ar    1  UNL1        0.0960
     29 N         139.9197  140.0946  166.2394 N.ar    1  UNL1       -0.2291
     30 C         138.3426  143.3283  164.5641 C.3     1  UNL1        0.0239
     31 C         137.6074  142.8654  163.3413 C.3     1  UNL1        0.0047
     32 C         138.0952  144.7022  165.1127 C.3     1  UNL1        0.0047
     33 C         142.5816  139.8601  168.7178 C.3     1  UNL1        0.0812
     34 C         143.0332  140.7286  169.8543 C.3     1  UNL1        0.0219
     35 C         142.6641  139.2967  170.1055 C.3     1  UNL1        0.0219
@<TRIPOS>BOND
     1    15    16    1
     2    16    14    1
     3    14    13    1
     4    12    13    1
     5    12    17    1
     6    17    18    1
     7    18    19    1
     8    18    20    1
     9    12     8    1
    10     8     9   am
    11     9    10    2
    12     1     9    1
    13     1     2    1
    14     2     3    1
    15     3     4    1
    16     4     5    1
    17     5    21    1
    18    21    22    2
    19    21    23   am
    20    23    24    1
    21    24    25   ar
    22    25    26   ar
    23    26    27   ar
    24    27    30    1
    25    30    31    1
    26    30    32    1
    27    27    28   ar
    28    28    29   ar
    29    23    33    1
    30    33    34    1
    31    34    35    1
    32     5     6    1
    33     6     1    1
    34    29    24   ar
    35    35    33    1
    36     8    11    1
    37     3     7    1
@<TRIPOS>MOLECULE
*****
 35 37 0 0 0
SMALL
GASTEIGER

@<TRIPOS>ATOM
      1 C         141.3525  138.5930  164.7724 C.3     1  UNL1        0.0927
      2 C         142.6827  137.9095  164.8880 C.3     1  UNL1        0.0777
      3 N         143.4902  138.0477  166.1446 N.3     1  UNL1       -0.2967
      4 C         142.9674  138.8694  167.2854 C.3     1  UNL1        0.0777
      5 C         141.6372  139.5528  167.1698 C.3     1  UNL1        0.0933
      6 C         140.8298  139.4146  165.9133 C.3     1  UNL1        0.0210
      7 H         144.3863  138.4539  165.8755 H       1  UNL1        0.1233
      8 N         140.1790  139.6735  162.7217 N.am    1  UNL1       -0.3035
      9 C         140.5450  138.4548  163.5158 C.2     1  UNL1        0.2234
     10 O         140.1036  137.0978  163.0535 O.2     1  UNL1       -0.2751
     11 H         140.4687  140.5641  163.0252 H       1  UNL1        0.1495
     12 C         139.3715  139.5353  161.4652 C.3     1  UNL1        0.1011
     13 C         138.0017  140.1410  161.3835 C.3     1  UNL1        0.1615
     14 O         137.3076  140.5971  162.6326 O.3     1  UNL1       -0.3520
     15 C         137.9524  143.0786  162.2124 C.3     1  UNL1        0.0346
     16 C         137.5331  141.9864  163.1512 C.3     1  UNL1        0.1423
     17 C         139.9339  138.7912  160.2903 C.3     1  UNL1        0.0221
     18 C         141.3486  139.0350  159.8556 C.3     1  UNL1        0.0017
     19 C         142.4154  138.0305  160.1761 C.3     1  UNL1        0.0001
     20 C         141.6966  140.2834  159.1002 C.3     1  UNL1        0.0001
     21 C         141.1144  140.3745  168.3107 C.2     1  UNL1        0.2312
     22 O         140.7196  139.7085  169.5954 O.2     1  UNL1       -0.2745
     23 N         140.9865  141.8620  168.1668 N.am    1  UNL1       -0.2455
     24 C         141.3814  142.5280  166.8821 C.ar    1  UNL1        0.1373
     25 C         140.3350  143.1576  166.0112 C.ar    1  UNL1        0.0344
     26 C         140.7298  143.8235  164.7264 C.ar    1  UNL1        0.0001
     27 C         142.1711  143.8599  164.3126 C.ar    1  UNL1       -0.0033
     28 C         143.2177  143.2303  165.1836 C.ar    1  UNL1        0.0960
     29 N         142.8228  142.5644  166.4683 N.ar    1  UNL1       -0.2291
     30 C         142.5660  144.5259  163.0279 C.3     1  UNL1        0.0239
     31 C         141.5122  144.9495  162.0479 C.3     1  UNL1        0.0047
     32 C         144.0145  144.7683  162.7231 C.3     1  UNL1        0.0047
     33 C         140.4637  142.6837  169.3077 C.3     1  UNL1        0.0812
     34 C         140.3155  144.0099  169.9926 C.3     1  UNL1        0.0219
     35 C         139.7064  142.7806  170.5989 C.3     1  UNL1        0.0219
@<TRIPOS>BOND
     1    15    16    1
     2    16    14    1
     3    14    13    1
     4    12    13    1
     5    12    17    1
     6    17    18    1
     7    18    19    1
     8    18    20    1
     9    12     8    1
    10     8     9   am
    11     9    10    2
    12     1     9    1
    13     1     2    1
    14     2     3    1
    15     3     4    1
    16     4     5    1
    17     5    21    1
    18    21    22    2
    19    21    23   am
    20    23    24    1
    21    24    25   ar
    22    25    26   ar
    23    26    27   ar
    24    27    30    1
    25    30    31    1
    26    30    32    1
    27    27    28   ar
    28    28    29   ar
    29    23    33    1
    30    33    34    1
    31    34    35    1
    32     5     6    1
    33     6     1    1
    34    29    24   ar
    35    35    33    1
    36     8    11    1
    37     3     7    1
