@<TRIPOS>MOLECULE
*****
 31 34 0 0 0
SMALL
GASTEIGER

@<TRIPOS>ATOM
      1 C         141.2558  141.6378  167.7526 C.ar    1  UNL1        0.0519
      2 C         141.6178  141.6262  169.2082 C.ar    1  UNL1        0.0853
      3 C         140.8533  140.7593  170.1643 C.ar    1  UNL1        0.1045
      4 N         139.7269  139.9040  169.6648 N.ar    1  UNL1       -0.2436
      5 C         139.3648  139.9156  168.2091 C.ar    1  UNL1        0.0825
      6 C         138.2384  139.0603  167.7096 C.ar    1  UNL1        0.0191
      7 C         137.8764  139.0719  166.2540 C.ar    1  UNL1        0.0016
      8 C         138.6409  139.9388  165.2979 C.ar    1  UNL1        0.0016
      9 C         139.7673  140.7941  165.7974 C.ar    1  UNL1        0.0028
     10 C         140.1293  140.7825  167.2530 C.ar    1  UNL1        0.0309
     11 C         138.2788  139.9504  163.8423 C.ar    1  UNL1        0.0192
     12 C         138.4472  138.7087  163.0177 C.ar    1  UNL1        0.0031
     13 C         138.0851  138.7203  161.5620 C.ar    1  UNL1        0.0207
     14 C         137.5547  139.9735  160.9310 C.ar    1  UNL1        0.0989
     15 N         137.3864  141.2152  161.7557 N.ar    1  UNL1       -0.2423
     16 C         137.7484  141.2036  163.2113 C.ar    1  UNL1        0.0988
     17 C         142.7443  142.4816  169.7077 C.2     1  UNL1        0.2455
     18 N         142.6732  143.0909  171.0766 N.am    1  UNL1       -0.3252
     19 O         143.9417  142.7275  168.8385 O.2     1  UNL1       -0.2703
     20 H         141.8873  142.9295  171.6471 H       1  UNL1        0.1453
     21 H         143.4126  143.6523  171.4045 H       1  UNL1        0.1453
     22 N         142.0202  142.5047  166.7965 N.pl3   1  UNL1       -0.3338
     23 H         141.9287  143.4840  166.8390 H       1  UNL1        0.1468
     24 C         143.3709  140.4571  165.9404 C.3     1  UNL1        0.0212
     25 C         142.9242  141.8795  165.7757 C.3     1  UNL1        0.0692
     26 C         143.3814  142.6767  164.5902 C.3     1  UNL1        0.0229
     27 C         142.8585  144.0659  164.3738 C.3     1  UNL1        0.0338
     28 C         143.3157  144.8631  163.1883 C.3     1  UNL1        0.1422
     29 O         144.2957  144.2711  162.2191 O.3     1  UNL1       -0.3538
     30 C         144.8185  142.8820  162.4356 C.3     1  UNL1        0.1422
     31 C         144.3614  142.0848  163.6211 C.3     1  UNL1        0.0338
@<TRIPOS>BOND
     1    25    24    1
     2    25    22    1
     3    22     1    1
     4     1     2   ar
     5     2    17    1
     6    17    18   am
     7    17    19    2
     8     2     3   ar
     9     3     4   ar
    10     4     5   ar
    11     5     6   ar
    12     6     7   ar
    13     7     8   ar
    14     8    11    1
    15    11    12   ar
    16    12    13   ar
    17    13    14   ar
    18    14    15   ar
    19    15    16   ar
    20     8     9   ar
    21     9    10   ar
    22    25    26    1
    23    26    27    1
    24    27    28    1
    25    28    29    1
    26    29    30    1
    27    30    31    1
    28    10     1   ar
    29    31    26    1
    30    10     5   ar
    31    16    11   ar
    32    22    23    1
    33    18    20    1
    34    18    21    1
@<TRIPOS>MOLECULE
*****
 31 34 0 0 0
SMALL
GASTEIGER

@<TRIPOS>ATOM
      1 C         140.6738  141.8978  167.7438 C.ar    1  UNL1        0.0519
      2 C         140.9598  141.9434  169.2155 C.ar    1  UNL1        0.0853
      3 C         140.3122  140.9522  170.1365 C.ar    1  UNL1        0.1045
      4 N         139.3786  139.9154  169.5857 N.ar    1  UNL1       -0.2436
      5 C         139.0926  139.8697  168.1138 C.ar    1  UNL1        0.0825
      6 C         138.1591  138.8329  167.5630 C.ar    1  UNL1        0.0191
      7 C         137.8732  138.7872  166.0913 C.ar    1  UNL1        0.0016
      8 C         138.5208  139.7784  165.1703 C.ar    1  UNL1        0.0016
      9 C         139.4543  140.8152  165.7211 C.ar    1  UNL1        0.0028
     10 C         139.7402  140.8609  167.1929 C.ar    1  UNL1        0.0309
     11 C         138.2348  139.7327  163.6985 C.ar    1  UNL1        0.0192
     12 C         138.4928  138.4749  162.9230 C.ar    1  UNL1        0.0031
     13 C         138.2068  138.4293  161.4512 C.ar    1  UNL1        0.0207
     14 C         137.6628  139.6414  160.7549 C.ar    1  UNL1        0.0989
     15 N         137.4048  140.8992  161.5305 N.ar    1  UNL1       -0.2423
     16 C         137.6908  140.9448  163.0022 C.ar    1  UNL1        0.0988
     17 C         141.8933  142.9803  169.7664 C.2     1  UNL1        0.2455
     18 N         143.3766  142.7706  169.6895 N.am    1  UNL1       -0.3252
     19 O         141.3436  144.2268  170.3941 O.2     1  UNL1       -0.2703
     20 H         143.7374  141.9525  169.2775 H       1  UNL1        0.1453
     21 H         143.9894  143.4511  170.0511 H       1  UNL1        0.1453
     22 N         141.3214  142.8889  166.8228 N.pl3   1  UNL1       -0.3338
     23 H         141.0114  143.8233  166.8086 H       1  UNL1        0.1468
     24 C         143.2806  141.2683  166.2889 C.3     1  UNL1        0.0212
     25 C         142.4414  142.4565  165.9234 C.3     1  UNL1        0.0692
     26 C         142.7220  143.2125  164.6586 C.3     1  UNL1        0.0229
     27 C         144.0524  143.0715  163.9800 C.3     1  UNL1        0.0338
     28 C         144.3330  143.8275  162.7152 C.3     1  UNL1        0.1422
     29 O         143.2832  144.7244  162.1289 O.3     1  UNL1       -0.3538
     30 C         141.9530  144.8653  162.8074 C.3     1  UNL1        0.1422
     31 C         141.6723  144.1093  164.0723 C.3     1  UNL1        0.0338
@<TRIPOS>BOND
     1    25    24    1
     2    25    22    1
     3    22     1    1
     4     1     2   ar
     5     2    17    1
     6    17    18   am
     7    17    19    2
     8     2     3   ar
     9     3     4   ar
    10     4     5   ar
    11     5     6   ar
    12     6     7   ar
    13     7     8   ar
    14     8    11    1
    15    11    12   ar
    16    12    13   ar
    17    13    14   ar
    18    14    15   ar
    19    15    16   ar
    20     8     9   ar
    21     9    10   ar
    22    25    26    1
    23    26    27    1
    24    27    28    1
    25    28    29    1
    26    29    30    1
    27    30    31    1
    28    10     1   ar
    29    31    26    1
    30    10     5   ar
    31    16    11   ar
    32    22    23    1
    33    18    20    1
    34    18    21    1
@<TRIPOS>MOLECULE
*****
 31 34 0 0 0
SMALL
GASTEIGER

@<TRIPOS>ATOM
      1 C         140.1811  141.5320  168.1902 C.ar    1  UNL1        0.0519
      2 C         139.7567  141.5591  169.6286 C.ar    1  UNL1        0.0853
      3 C         138.7672  140.5533  170.1377 C.ar    1  UNL1        0.1045
      4 N         138.2022  139.5202  169.2084 N.ar    1  UNL1       -0.2436
      5 C         138.6267  139.4930  167.7699 C.ar    1  UNL1        0.0825
      6 C         138.0618  138.4600  166.8407 C.ar    1  UNL1        0.0191
      7 C         138.4862  138.4328  165.4023 C.ar    1  UNL1        0.0016
      8 C         139.4757  139.4387  164.8931 C.ar    1  UNL1        0.0016
      9 C         140.0407  140.4717  165.8224 C.ar    1  UNL1        0.0028
     10 C         139.6162  140.4989  167.2608 C.ar    1  UNL1        0.0309
     11 C         139.9002  139.4115  163.4547 C.ar    1  UNL1        0.0192
     12 C         140.7001  140.5463  162.8872 C.ar    1  UNL1        0.0031
     13 C         141.1246  140.5191  161.4487 C.ar    1  UNL1        0.0207
     14 C         140.7491  139.3570  160.5778 C.ar    1  UNL1        0.0989
     15 N         139.9491  138.2221  161.1454 N.ar    1  UNL1       -0.2423
     16 C         139.5247  138.2494  162.5838 C.ar    1  UNL1        0.0988
     17 C         140.3216  142.5922  170.5579 C.2     1  UNL1        0.2455
     18 N         139.9887  144.0413  170.3600 N.am    1  UNL1       -0.3252
     19 O         141.2195  142.1761  171.6852 O.2     1  UNL1       -0.2703
     20 H         139.3994  144.3144  169.6201 H       1  UNL1        0.1453
     21 H         140.3595  144.7194  170.9699 H       1  UNL1        0.1453
     22 N         141.1706  142.5378  167.6811 N.pl3   1  UNL1       -0.3338
     23 H         140.8606  143.4181  167.3675 H       1  UNL1        0.1468
     24 C         143.4179  142.1522  168.9265 C.3     1  UNL1        0.0212
     25 C         142.6323  142.2025  167.6497 C.3     1  UNL1        0.0692
     26 C         143.3085  141.9175  166.3414 C.3     1  UNL1        0.0229
     27 C         143.9552  143.0317  165.5729 C.3     1  UNL1        0.0338
     28 C         144.6313  142.7467  164.2647 C.3     1  UNL1        0.1422
     29 O         144.6607  141.3475  163.7248 O.3     1  UNL1       -0.3538
     30 C         144.0141  140.2333  164.4932 C.3     1  UNL1        0.1422
     31 C         143.3379  140.5184  165.8015 C.3     1  UNL1        0.0338
@<TRIPOS>BOND
     1    25    24    1
     2    25    22    1
     3    22     1    1
     4     1     2   ar
     5     2    17    1
     6    17    18   am
     7    17    19    2
     8     2     3   ar
     9     3     4   ar
    10     4     5   ar
    11     5     6   ar
    12     6     7   ar
    13     7     8   ar
    14     8    11    1
    15    11    12   ar
    16    12    13   ar
    17    13    14   ar
    18    14    15   ar
    19    15    16   ar
    20     8     9   ar
    21     9    10   ar
    22    25    26    1
    23    26    27    1
    24    27    28    1
    25    28    29    1
    26    29    30    1
    27    30    31    1
    28    10     1   ar
    29    31    26    1
    30    10     5   ar
    31    16    11   ar
    32    22    23    1
    33    18    20    1
    34    18    21    1
@<TRIPOS>MOLECULE
*****
 31 34 0 0 0
SMALL
GASTEIGER

@<TRIPOS>ATOM
      1 C         140.6418  140.2868  167.5192 C.ar    1  UNL1        0.0519
      2 C         140.6756  140.1590  169.0133 C.ar    1  UNL1        0.0853
      3 C         141.8262  139.4658  169.6809 C.ar    1  UNL1        0.1045
      4 N         142.9428  138.9002  168.8544 N.ar    1  UNL1       -0.2436
      5 C         142.9090  139.0279  167.3601 C.ar    1  UNL1        0.0825
      6 C         144.0256  138.4624  166.5336 C.ar    1  UNL1        0.0191
      7 C         143.9917  138.5901  165.0395 C.ar    1  UNL1        0.0016
      8 C         142.8412  139.2834  164.3719 C.ar    1  UNL1        0.0016
      9 C         141.7246  139.8489  165.1984 C.ar    1  UNL1        0.0028
     10 C         141.7584  139.7212  166.6925 C.ar    1  UNL1        0.0309
     11 C         142.8074  139.4111  162.8776 C.ar    1  UNL1        0.0192
     12 C         141.5258  139.7667  162.1841 C.ar    1  UNL1        0.0031
     13 C         141.4919  139.8944  160.6899 C.ar    1  UNL1        0.0207
     14 C         142.7397  139.6665  159.8893 C.ar    1  UNL1        0.0989
     15 N         144.0214  139.3108  160.5829 N.ar    1  UNL1       -0.2423
     16 C         144.0552  139.1831  162.0770 C.ar    1  UNL1        0.0988
     17 C         139.5590  140.7246  169.8399 C.2     1  UNL1        0.2455
     18 N         138.4051  139.8530  170.2385 N.am    1  UNL1       -0.3252
     19 O         139.5962  142.1617  170.2679 O.2     1  UNL1       -0.2703
     20 H         138.3807  138.9097  169.9576 H       1  UNL1        0.1453
     21 H         137.6722  140.2241  170.7811 H       1  UNL1        0.1453
     22 N         139.4913  140.9800  166.8516 N.pl3   1  UNL1       -0.3338
     23 H         139.3609  141.9480  166.9754 H       1  UNL1        0.1468
     24 C         137.9368  138.9260  166.5127 C.3     1  UNL1        0.0212
     25 C         138.5393  140.1985  165.9953 C.3     1  UNL1        0.0692
     26 C         138.1900  140.6895  164.6217 C.3     1  UNL1        0.0229
     27 C         138.1234  139.7249  163.4748 C.3     1  UNL1        0.0338
     28 C         137.7740  140.2159  162.1012 C.3     1  UNL1        0.1422
     29 O         137.4912  141.6715  161.8744 O.3     1  UNL1       -0.3538
     30 C         137.5578  142.6360  163.0213 C.3     1  UNL1        0.1422
     31 C         137.9072  142.1450  164.3949 C.3     1  UNL1        0.0338
@<TRIPOS>BOND
     1    25    24    1
     2    25    22    1
     3    22     1    1
     4     1     2   ar
     5     2    17    1
     6    17    18   am
     7    17    19    2
     8     2     3   ar
     9     3     4   ar
    10     4     5   ar
    11     5     6   ar
    12     6     7   ar
    13     7     8   ar
    14     8    11    1
    15    11    12   ar
    16    12    13   ar
    17    13    14   ar
    18    14    15   ar
    19    15    16   ar
    20     8     9   ar
    21     9    10   ar
    22    25    26    1
    23    26    27    1
    24    27    28    1
    25    28    29    1
    26    29    30    1
    27    30    31    1
    28    10     1   ar
    29    31    26    1
    30    10     5   ar
    31    16    11   ar
    32    22    23    1
    33    18    20    1
    34    18    21    1
@<TRIPOS>MOLECULE
*****
 31 34 0 0 0
SMALL
GASTEIGER

@<TRIPOS>ATOM
      1 C         139.2718  142.8194  164.1414 C.ar    1  UNL1        0.0519
      2 C         138.5679  142.7568  162.8184 C.ar    1  UNL1        0.0853
      3 C         137.7330  141.5607  162.4689 C.ar    1  UNL1        0.1045
      4 N         137.6020  140.4271  163.4424 N.ar    1  UNL1       -0.2436
      5 C         138.3059  140.4897  164.7655 C.ar    1  UNL1        0.0825
      6 C         138.1750  139.3561  165.7391 C.ar    1  UNL1        0.0191
      7 C         138.8789  139.4187  167.0622 C.ar    1  UNL1        0.0016
      8 C         139.7138  140.6149  167.4117 C.ar    1  UNL1        0.0016
      9 C         139.8448  141.7484  166.4381 C.ar    1  UNL1        0.0028
     10 C         139.1408  141.6858  165.1151 C.ar    1  UNL1        0.0309
     11 C         140.4177  140.6774  168.7348 C.ar    1  UNL1        0.0192
     12 C         141.8594  140.2761  168.8371 C.ar    1  UNL1        0.0031
     13 C         142.5633  140.3387  170.1602 C.ar    1  UNL1        0.0207
     14 C         141.8255  140.8026  171.3810 C.ar    1  UNL1        0.0989
     15 N         140.3838  141.2039  171.2787 N.ar    1  UNL1       -0.2423
     16 C         139.6799  141.1413  169.9557 C.ar    1  UNL1        0.0988
     17 C         138.6988  143.8904  161.8447 C.2     1  UNL1        0.2455
     18 N         139.0766  143.6150  160.4194 N.am    1  UNL1       -0.3252
     19 O         138.4520  145.2993  162.2964 O.2     1  UNL1       -0.2703
     20 H         139.2387  142.6903  160.1230 H       1  UNL1        0.1453
     21 H         139.1626  144.3590  159.7804 H       1  UNL1        0.1453
     22 N         140.1067  144.0156  164.4909 N.pl3   1  UNL1       -0.3338
     23 H         139.7280  144.7349  165.0463 H       1  UNL1        0.1468
     24 C         142.1312  145.4614  163.7418 C.3     1  UNL1        0.0212
     25 C         141.5186  144.1157  163.9943 C.3     1  UNL1        0.0692
     26 C         142.3179  142.8701  163.7502 C.3     1  UNL1        0.0229
     27 C         142.3773  142.2746  162.3746 C.3     1  UNL1        0.0338
     28 C         143.1765  141.0290  162.1305 C.3     1  UNL1        0.1422
     29 O         143.9164  140.3788  163.2619 O.3     1  UNL1       -0.3538
     30 C         143.8570  140.9743  164.6373 C.3     1  UNL1        0.1422
     31 C         143.0577  142.2199  164.8815 C.3     1  UNL1        0.0338
@<TRIPOS>BOND
     1    25    24    1
     2    25    22    1
     3    22     1    1
     4     1     2   ar
     5     2    17    1
     6    17    18   am
     7    17    19    2
     8     2     3   ar
     9     3     4   ar
    10     4     5   ar
    11     5     6   ar
    12     6     7   ar
    13     7     8   ar
    14     8    11    1
    15    11    12   ar
    16    12    13   ar
    17    13    14   ar
    18    14    15   ar
    19    15    16   ar
    20     8     9   ar
    21     9    10   ar
    22    25    26    1
    23    26    27    1
    24    27    28    1
    25    28    29    1
    26    29    30    1
    27    30    31    1
    28    10     1   ar
    29    31    26    1
    30    10     5   ar
    31    16    11   ar
    32    22    23    1
    33    18    20    1
    34    18    21    1
@<TRIPOS>MOLECULE
*****
 31 34 0 0 0
SMALL
GASTEIGER

@<TRIPOS>ATOM
      1 C         143.2553  139.6267  163.4181 C.ar    1  UNL1        0.0519
      2 C         144.0533  139.9516  162.1904 C.ar    1  UNL1        0.0853
      3 C         144.8481  141.2222  162.1269 C.ar    1  UNL1        0.1045
      4 N         144.8447  142.1679  163.2913 N.ar    1  UNL1       -0.2436
      5 C         144.0466  141.8429  164.5191 C.ar    1  UNL1        0.0825
      6 C         144.0433  142.7886  165.6834 C.ar    1  UNL1        0.0191
      7 C         143.2452  142.4636  166.9112 C.ar    1  UNL1        0.0016
      8 C         142.4505  141.1930  166.9746 C.ar    1  UNL1        0.0016
      9 C         142.4538  140.2474  165.8103 C.ar    1  UNL1        0.0028
     10 C         143.2519  140.5724  164.5826 C.ar    1  UNL1        0.0309
     11 C         141.6524  140.8681  168.2025 C.ar    1  UNL1        0.0192
     12 C         140.1859  140.5747  168.0879 C.ar    1  UNL1        0.0031
     13 C         139.3878  140.2498  169.3157 C.ar    1  UNL1        0.0207
     14 C         140.0563  140.2183  170.6582 C.ar    1  UNL1        0.0989
     15 N         141.5229  140.5117  170.7727 N.ar    1  UNL1       -0.2423
     16 C         142.3209  140.8366  169.5449 C.ar    1  UNL1        0.0988
     17 C         144.0567  139.0060  161.0260 C.2     1  UNL1        0.2455
     18 N         143.9338  139.5368  159.6284 N.am    1  UNL1       -0.3252
     19 O         144.1830  137.5296  161.2591 O.2     1  UNL1       -0.2703
     20 H         143.8509  140.5058  159.4754 H       1  UNL1        0.1453
     21 H         143.9360  138.9161  158.8642 H       1  UNL1        0.1453
     22 N         142.4605  138.3561  163.4816 N.pl3   1  UNL1       -0.3338
     23 H         142.8765  137.5319  163.8234 H       1  UNL1        0.1468
     24 C         140.7039  138.0011  161.6006 C.3     1  UNL1        0.0212
     25 C         141.0320  138.3414  163.0241 C.3     1  UNL1        0.0692
     26 C         139.9317  138.6669  163.9902 C.3     1  UNL1        0.0229
     27 C         139.4831  137.6417  164.9891 C.3     1  UNL1        0.0338
     28 C         138.3828  137.9673  165.9553 C.3     1  UNL1        0.1422
     29 O         137.7311  139.3180  165.9224 O.3     1  UNL1       -0.3538
     30 C         138.1798  140.3431  164.9235 C.3     1  UNL1        0.1422
     31 C         139.2801  140.0175  163.9574 C.3     1  UNL1        0.0338
@<TRIPOS>BOND
     1    25    24    1
     2    25    22    1
     3    22     1    1
     4     1     2   ar
     5     2    17    1
     6    17    18   am
     7    17    19    2
     8     2     3   ar
     9     3     4   ar
    10     4     5   ar
    11     5     6   ar
    12     6     7   ar
    13     7     8   ar
    14     8    11    1
    15    11    12   ar
    16    12    13   ar
    17    13    14   ar
    18    14    15   ar
    19    15    16   ar
    20     8     9   ar
    21     9    10   ar
    22    25    26    1
    23    26    27    1
    24    27    28    1
    25    28    29    1
    26    29    30    1
    27    30    31    1
    28    10     1   ar
    29    31    26    1
    30    10     5   ar
    31    16    11   ar
    32    22    23    1
    33    18    20    1
    34    18    21    1
@<TRIPOS>MOLECULE
*****
 31 34 0 0 0
SMALL
GASTEIGER

@<TRIPOS>ATOM
      1 C         140.9192  141.8048  167.7431 C.ar    1  UNL1        0.0519
      2 C         141.2375  141.8407  169.2085 C.ar    1  UNL1        0.0853
      3 C         140.5347  140.9099  170.1517 C.ar    1  UNL1        0.1045
      4 N         139.5135  139.9432  169.6295 N.ar    1  UNL1       -0.2436
      5 C         139.1952  139.9072  168.1640 C.ar    1  UNL1        0.0825
      6 C         138.1741  138.9405  167.6418 C.ar    1  UNL1        0.0191
      7 C         137.8559  138.9046  166.1765 C.ar    1  UNL1        0.0016
      8 C         138.5587  139.8354  165.2333 C.ar    1  UNL1        0.0016
      9 C         139.5798  140.8021  165.7555 C.ar    1  UNL1        0.0028
     10 C         139.8981  140.8380  167.2208 C.ar    1  UNL1        0.0309
     11 C         138.2404  139.7994  163.7678 C.ar    1  UNL1        0.0192
     12 C         138.4877  138.5490  162.9771 C.ar    1  UNL1        0.0031
     13 C         138.1694  138.5131  161.5116 C.ar    1  UNL1        0.0207
     14 C         137.6038  139.7275  160.8370 C.ar    1  UNL1        0.0989
     15 N         137.3565  140.9780  161.6278 N.ar    1  UNL1       -0.2423
     16 C         137.6748  141.0139  163.0932 C.ar    1  UNL1        0.0988
     17 C         142.2587  142.8075  169.7307 C.2     1  UNL1        0.2455
     18 N         143.7205  142.5287  169.5426 N.am    1  UNL1       -0.3252
     19 O         141.8180  144.0529  170.4411 O.2     1  UNL1       -0.2703
     20 H         144.0097  141.7113  169.0763 H       1  UNL1        0.1453
     21 H         144.3907  143.1632  169.8853 H       1  UNL1        0.1453
     22 N         141.6221  142.7356  166.7999 N.pl3   1  UNL1       -0.3338
     23 H         141.2733  143.6446  166.6542 H       1  UNL1        0.1468
     24 C         144.0834  143.1442  166.0752 C.3     1  UNL1        0.0212
     25 C         142.8565  142.2813  166.0787 C.3     1  UNL1        0.0692
     26 C         142.8638  140.9642  165.3610 C.3     1  UNL1        0.0229
     27 C         142.5604  140.9082  163.8930 C.3     1  UNL1        0.0338
     28 C         142.5678  139.5911  163.1754 C.3     1  UNL1        0.1422
     29 O         142.8785  138.3299  163.9257 O.3     1  UNL1       -0.3538
     30 C         143.1819  138.3859  165.3936 C.3     1  UNL1        0.1422
     31 C         143.1745  139.7030  166.1112 C.3     1  UNL1        0.0338
@<TRIPOS>BOND
     1    25    24    1
     2    25    22    1
     3    22     1    1
     4     1     2   ar
     5     2    17    1
     6    17    18   am
     7    17    19    2
     8     2     3   ar
     9     3     4   ar
    10     4     5   ar
    11     5     6   ar
    12     6     7   ar
    13     7     8   ar
    14     8    11    1
    15    11    12   ar
    16    12    13   ar
    17    13    14   ar
    18    14    15   ar
    19    15    16   ar
    20     8     9   ar
    21     9    10   ar
    22    25    26    1
    23    26    27    1
    24    27    28    1
    25    28    29    1
    26    29    30    1
    27    30    31    1
    28    10     1   ar
    29    31    26    1
    30    10     5   ar
    31    16    11   ar
    32    22    23    1
    33    18    20    1
    34    18    21    1
@<TRIPOS>MOLECULE
*****
 31 34 0 0 0
SMALL
GASTEIGER

@<TRIPOS>ATOM
      1 C         139.5824  139.1790  163.7717 C.ar    1  UNL1        0.0519
      2 C         139.9921  138.2836  162.6402 C.ar    1  UNL1        0.0853
      3 C         141.2889  137.5329  162.7096 C.ar    1  UNL1        0.1045
      4 N         142.1760  137.6776  163.9104 N.ar    1  UNL1       -0.2436
      5 C         141.7663  138.5730  165.0420 C.ar    1  UNL1        0.0825
      6 C         142.6533  138.7177  166.2429 C.ar    1  UNL1        0.0191
      7 C         142.2436  139.6131  167.3744 C.ar    1  UNL1        0.0016
      8 C         140.9468  140.3638  167.3050 C.ar    1  UNL1        0.0016
      9 C         140.0597  140.2191  166.1042 C.ar    1  UNL1        0.0028
     10 C         140.4695  139.3237  164.9727 C.ar    1  UNL1        0.0309
     11 C         140.5371  141.2592  168.4366 C.ar    1  UNL1        0.0192
     12 C         140.9237  142.7085  168.4241 C.ar    1  UNL1        0.0031
     13 C         140.5140  143.6039  169.5557 C.ar    1  UNL1        0.0207
     14 C         139.7176  143.0500  170.6998 C.ar    1  UNL1        0.0989
     15 N         139.3309  141.6007  170.7123 N.ar    1  UNL1       -0.2423
     16 C         139.7407  140.7054  169.5807 C.ar    1  UNL1        0.0988
     17 C         139.1051  138.1389  161.4392 C.2     1  UNL1        0.2455
     18 N         139.6752  138.3033  160.0616 N.am    1  UNL1       -0.3252
     19 O         137.6480  137.8297  161.6160 O.2     1  UNL1       -0.2703
     20 H         140.6315  138.5062  159.9456 H       1  UNL1        0.1453
     21 H         139.0930  138.2083  159.2733 H       1  UNL1        0.1453
     22 N         138.2856  139.9297  163.7023 N.pl3   1  UNL1       -0.3338
     23 H         137.4781  139.5575  164.1251 H       1  UNL1        0.1468
     24 C         137.6455  141.3229  161.6049 C.3     1  UNL1        0.0212
     25 C         138.2191  141.2475  162.9888 C.3     1  UNL1        0.0692
     26 C         138.7262  142.4898  163.6593 C.3     1  UNL1        0.0229
     27 C         140.1655  142.8863  163.5139 C.3     1  UNL1        0.0338
     28 C         140.6726  144.1286  164.1844 C.3     1  UNL1        0.1422
     29 O         139.7403  144.9744  165.0002 O.3     1  UNL1       -0.3538
     30 C         138.3010  144.5779  165.1455 C.3     1  UNL1        0.1422
     31 C         137.7940  143.3356  164.4751 C.3     1  UNL1        0.0338
@<TRIPOS>BOND
     1    25    24    1
     2    25    22    1
     3    22     1    1
     4     1     2   ar
     5     2    17    1
     6    17    18   am
     7    17    19    2
     8     2     3   ar
     9     3     4   ar
    10     4     5   ar
    11     5     6   ar
    12     6     7   ar
    13     7     8   ar
    14     8    11    1
    15    11    12   ar
    16    12    13   ar
    17    13    14   ar
    18    14    15   ar
    19    15    16   ar
    20     8     9   ar
    21     9    10   ar
    22    25    26    1
    23    26    27    1
    24    27    28    1
    25    28    29    1
    26    29    30    1
    27    30    31    1
    28    10     1   ar
    29    31    26    1
    30    10     5   ar
    31    16    11   ar
    32    22    23    1
    33    18    20    1
    34    18    21    1
@<TRIPOS>MOLECULE
*****
 31 34 0 0 0
SMALL
GASTEIGER

@<TRIPOS>ATOM
      1 C         141.3752  140.4067  168.2523 C.ar    1  UNL1        0.0519
      2 C         141.2282  140.7107  169.7137 C.ar    1  UNL1        0.0853
      3 C         139.9288  140.4345  170.4103 C.ar    1  UNL1        0.1045
      4 N         138.7763  139.8542  169.6454 N.ar    1  UNL1       -0.2436
      5 C         138.9233  139.5501  168.1838 C.ar    1  UNL1        0.0825
      6 C         137.7709  138.9698  167.4189 C.ar    1  UNL1        0.0191
      7 C         137.9179  138.6658  165.9575 C.ar    1  UNL1        0.0016
      8 C         139.2173  138.9420  165.2609 C.ar    1  UNL1        0.0016
      9 C         140.3697  139.5223  166.0258 C.ar    1  UNL1        0.0028
     10 C         140.2227  139.8263  167.4873 C.ar    1  UNL1        0.0309
     11 C         139.3643  138.6379  163.7994 C.ar    1  UNL1        0.0192
     12 C         138.2888  139.0457  162.8366 C.ar    1  UNL1        0.0031
     13 C         138.4358  138.7417  161.3751 C.ar    1  UNL1        0.0207
     14 C         139.6582  138.0297  160.8764 C.ar    1  UNL1        0.0989
     15 N         140.7337  137.6218  161.8393 N.ar    1  UNL1       -0.2423
     16 C         140.5867  137.9259  163.3007 C.ar    1  UNL1        0.0988
     17 C         142.3807  141.2911  170.4787 C.2     1  UNL1        0.2455
     18 N         142.1634  142.4665  171.3849 N.am    1  UNL1       -0.3252
     19 O         143.7503  140.6959  170.3375 O.2     1  UNL1       -0.2703
     20 H         141.2645  142.8571  171.4775 H       1  UNL1        0.1453
     21 H         142.9198  142.8474  171.8869 H       1  UNL1        0.1453
     22 N         142.6746  140.6829  167.5557 N.pl3   1  UNL1       -0.3338
     23 H         143.4952  140.2213  167.8435 H       1  UNL1        0.1468
     24 C         141.8334  142.8695  166.4326 C.3     1  UNL1        0.0212
     25 C         142.7238  141.6624  166.4207 C.3     1  UNL1        0.0692
     26 C         143.6633  141.4348  165.2738 C.3     1  UNL1        0.0229
     27 C         143.9232  140.0416  164.7822 C.3     1  UNL1        0.0338
     28 C         144.8627  139.8140  163.6353 C.3     1  UNL1        0.1422
     29 O         145.5424  140.9797  162.9799 O.3     1  UNL1       -0.3538
     30 C         145.2825  142.3728  163.4715 C.3     1  UNL1        0.1422
     31 C         144.3430  142.6004  164.6184 C.3     1  UNL1        0.0338
@<TRIPOS>BOND
     1    25    24    1
     2    25    22    1
     3    22     1    1
     4     1     2   ar
     5     2    17    1
     6    17    18   am
     7    17    19    2
     8     2     3   ar
     9     3     4   ar
    10     4     5   ar
    11     5     6   ar
    12     6     7   ar
    13     7     8   ar
    14     8    11    1
    15    11    12   ar
    16    12    13   ar
    17    13    14   ar
    18    14    15   ar
    19    15    16   ar
    20     8     9   ar
    21     9    10   ar
    22    25    26    1
    23    26    27    1
    24    27    28    1
    25    28    29    1
    26    29    30    1
    27    30    31    1
    28    10     1   ar
    29    31    26    1
    30    10     5   ar
    31    16    11   ar
    32    22    23    1
    33    18    20    1
    34    18    21    1
