@<TRIPOS>MOLECULE
*****
 42 46 0 0 0
SMALL
GASTEIGER

@<TRIPOS>ATOM
      1 C         141.2788  144.7863  162.0520 C.ar    1  UNL1        0.1859
      2 N         142.5261  144.6319  162.8707 N.ar    1  UNL1       -0.2217
      3 C         142.5186  143.7610  164.0921 C.ar    1  UNL1        0.1361
      4 C         143.7659  143.6067  164.9107 C.ar    1  UNL1        0.1227
      5 N         143.7584  142.7358  166.1320 N.ar    1  UNL1       -0.2231
      6 C         142.5036  142.0194  166.5346 C.ar    1  UNL1        0.1696
      7 N         141.2562  142.1738  165.7160 N.ar    1  UNL1       -0.2076
      8 C         141.2638  143.0446  164.4947 C.ar    1  UNL1        0.1673
      9 N         140.0164  143.1990  163.6759 N.ar    1  UNL1       -0.2704
     10 C         140.0239  144.0698  162.4546 C.ar    1  UNL1        0.2937
     11 O         138.7765  144.2243  161.6359 O.2     1  UNL1       -0.2639
     12 C         142.4961  141.1486  167.7560 C.ar    1  UNL1        0.1025
     13 C         142.1682  141.7383  169.0956 C.ar    1  UNL1        0.2305
     14 N         142.1607  140.8675  170.3170 N.ar    1  UNL1       -0.1893
     15 C         142.4812  139.4069  170.1986 C.ar    1  UNL1        0.2012
     16 N         142.8091  138.8172  168.8589 N.ar    1  UNL1       -0.2281
     17 C         142.8166  139.6880  167.6377 C.ar    1  UNL1        0.0678
     18 C         143.1445  139.0983  166.2979 C.3     1  UNL1        0.0406
     19 C         144.1447  138.7931  165.2226 C.3     1  UNL1        0.0063
     20 C         142.7122  138.3820  165.0529 C.3     1  UNL1        0.0063
     21 O         141.8477  143.1989  169.2140 O.3     1  UNL1       -0.4560
     22 C         140.4597  143.6350  169.5791 C.3     1  UNL1        0.2542
     23 N         141.2862  145.6571  160.8306 N.pl3   1  UNL1       -0.3094
     24 H         141.1359  146.6263  160.9162 H       1  UNL1        0.1487
     25 C         141.5228  145.0513  159.4790 C.3     1  UNL1        0.1349
     26 C         142.2716  140.6307  159.0946 C.ar    1  UNL1        0.1247
     27 C         140.8855  141.1750  158.9145 C.ar    1  UNL1        0.0212
     28 C         140.6359  142.6485  159.0427 C.ar    1  UNL1        0.0178
     29 C         141.7724  143.5778  159.3509 C.ar    1  UNL1        0.0789
     30 N         143.1585  143.0335  159.5310 N.ar    1  UNL1       -0.2451
     31 C         143.4081  141.5599  159.4028 C.ar    1  UNL1        0.1168
     32 S         142.5213  139.1572  158.9665 S.O2    1  UNL1        0.0101
     33 O         143.9810  139.3818  159.2285 O.2     1  UNL1       -0.1686
     34 O         141.0615  138.9327  158.7045 O.2     1  UNL1       -0.1686
     35 C         142.6772  137.0211  157.4959 C.3     1  UNL1        0.0276
     36 C         142.7709  137.6837  158.8384 C.3     1  UNL1        0.1560
     37 C         138.7615  142.4826  164.0785 C.3     1  UNL1        0.1844
     38 C         137.6156  143.2506  164.6677 C.3     1  UNL1        0.0337
     39 C         138.6526  140.9983  163.8920 C.3     1  UNL1        0.4162
     40 F         138.5437  139.5139  163.7055 F       1  UNL1       -0.1680
     41 F         139.0158  141.1535  162.4450 F       1  UNL1       -0.1680
     42 F         138.2895  140.8431  165.3390 F       1  UNL1       -0.1680
@<TRIPOS>BOND
     1    35    36    1
     2    36    32    1
     3    32    33    2
     4    32    34    2
     5    32    26    1
     6    26    27   ar
     7    27    28   ar
     8    28    29   ar
     9    29    25    1
    10    25    23    1
    11    23     1    1
    12     1     2   ar
    13     2     3   ar
    14     3     4   ar
    15     4     5   ar
    16     5     6   ar
    17     6    12    1
    18    12    13   ar
    19    13    21    1
    20    21    22    1
    21    13    14   ar
    22    14    15   ar
    23    15    16   ar
    24    16    17   ar
    25    17    18    1
    26    18    19    1
    27    19    20    1
    28     6     7   ar
    29     7     8   ar
    30     8     9   ar
    31     9    37    1
    32    37    38    1
    33    37    39    1
    34    39    40    1
    35    39    41    1
    36    39    42    1
    37     9    10   ar
    38    10    11    2
    39    29    30   ar
    40    30    31   ar
    41    31    26   ar
    42    10     1   ar
    43     8     3   ar
    44    17    12   ar
    45    20    18    1
    46    23    24    1
@<TRIPOS>MOLECULE
*****
 42 46 0 0 0
SMALL
GASTEIGER

@<TRIPOS>ATOM
      1 C         138.4808  140.6092  161.3248 C.ar    1  UNL1        0.1859
      2 N         139.1732  139.6200  162.2147 N.ar    1  UNL1       -0.2217
      3 C         139.8050  140.0775  163.4959 C.ar    1  UNL1        0.1361
      4 C         140.4974  139.0883  164.3859 C.ar    1  UNL1        0.1227
      5 N         141.1292  139.5459  165.6670 N.ar    1  UNL1       -0.2231
      6 C         141.0686  140.9927  166.0583 C.ar    1  UNL1        0.1696
      7 N         140.3763  141.9819  165.1683 N.ar    1  UNL1       -0.2076
      8 C         139.7445  141.5244  163.8872 C.ar    1  UNL1        0.1673
      9 N         139.0521  142.5136  162.9972 N.ar    1  UNL1       -0.2704
     10 C         138.4203  142.0561  161.7160 C.ar    1  UNL1        0.2937
     11 O         137.7279  143.0453  160.8260 O.2     1  UNL1       -0.2639
     12 C         141.7005  141.4502  167.3395 C.ar    1  UNL1        0.1025
     13 C         141.0156  141.1898  168.6483 C.ar    1  UNL1        0.2305
     14 N         141.6475  141.6474  169.9296 N.ar    1  UNL1       -0.1893
     15 C         142.9642  142.3653  169.9019 C.ar    1  UNL1        0.2012
     16 N         143.6491  142.6257  168.5929 N.ar    1  UNL1       -0.2281
     17 C         143.0173  142.1681  167.3118 C.ar    1  UNL1        0.0678
     18 C         143.7021  142.4285  166.0029 C.3     1  UNL1        0.0406
     19 C         144.4545  143.3523  165.0916 C.3     1  UNL1        0.0063
     20 C         144.1360  141.9556  164.6471 C.3     1  UNL1        0.0063
     21 O         139.6989  140.4719  168.6760 O.3     1  UNL1       -0.4560
     22 C         138.9380  140.3500  169.9630 C.3     1  UNL1        0.2542
     23 N         137.8490  140.1517  160.0436 N.pl3   1  UNL1       -0.3094
     24 H         137.0028  139.6489  160.0641 H       1  UNL1        0.1487
     25 C         138.5064  140.4602  158.7311 C.3     1  UNL1        0.1349
     26 C         141.6085  137.6635  157.0563 C.ar    1  UNL1        0.1247
     27 C         141.9842  138.6472  158.1246 C.ar    1  UNL1        0.0212
     28 C         140.9501  139.5794  158.6828 C.ar    1  UNL1        0.0178
     29 C         139.5404  139.5280  158.1728 C.ar    1  UNL1        0.0789
     30 N         139.1648  138.5443  157.1046 N.ar    1  UNL1       -0.2451
     31 C         140.1989  137.6120  156.5463 C.ar    1  UNL1        0.1168
     32 S         142.6426  136.7313  156.4980 S.O2    1  UNL1        0.0101
     33 O         143.7136  137.7357  156.8046 O.2     1  UNL1       -0.1686
     34 O         141.5715  135.7269  156.1915 O.2     1  UNL1       -0.1686
     35 C         143.7392  134.3774  156.4143 C.3     1  UNL1        0.0276
     36 C         143.6766  135.7990  155.9397 C.3     1  UNL1        0.1560
     37 C         138.9916  143.9604  163.3884 C.3     1  UNL1        0.1844
     38 C         139.8361  144.9685  162.6668 C.3     1  UNL1        0.0337
     39 C         138.0865  144.3992  164.5012 C.3     1  UNL1        0.4162
     40 F         137.1814  144.8380  165.6141 F       1  UNL1       -0.1680
     41 F         139.2244  145.1454  165.1324 F       1  UNL1       -0.1680
     42 F         136.9487  143.6530  163.8700 F       1  UNL1       -0.1680
@<TRIPOS>BOND
     1    35    36    1
     2    36    32    1
     3    32    33    2
     4    32    34    2
     5    32    26    1
     6    26    27   ar
     7    27    28   ar
     8    28    29   ar
     9    29    25    1
    10    25    23    1
    11    23     1    1
    12     1     2   ar
    13     2     3   ar
    14     3     4   ar
    15     4     5   ar
    16     5     6   ar
    17     6    12    1
    18    12    13   ar
    19    13    21    1
    20    21    22    1
    21    13    14   ar
    22    14    15   ar
    23    15    16   ar
    24    16    17   ar
    25    17    18    1
    26    18    19    1
    27    19    20    1
    28     6     7   ar
    29     7     8   ar
    30     8     9   ar
    31     9    37    1
    32    37    38    1
    33    37    39    1
    34    39    40    1
    35    39    41    1
    36    39    42    1
    37     9    10   ar
    38    10    11    2
    39    29    30   ar
    40    30    31   ar
    41    31    26   ar
    42    10     1   ar
    43     8     3   ar
    44    17    12   ar
    45    20    18    1
    46    23    24    1
@<TRIPOS>MOLECULE
*****
 42 46 0 0 0
SMALL
GASTEIGER

@<TRIPOS>ATOM
      1 C         142.4900  143.1669  161.5180 C.ar    1  UNL1        0.1859
      2 N         143.2687  142.4106  162.5532 N.ar    1  UNL1       -0.2217
      3 C         142.6319  142.0655  163.8668 C.ar    1  UNL1        0.1361
      4 C         143.4106  141.3092  164.9020 C.ar    1  UNL1        0.1227
      5 N         142.7738  140.9641  166.2155 N.ar    1  UNL1       -0.2231
      6 C         141.3584  141.3754  166.4938 C.ar    1  UNL1        0.1696
      7 N         140.5797  142.1317  165.4587 N.ar    1  UNL1       -0.2076
      8 C         141.2165  142.4767  164.1451 C.ar    1  UNL1        0.1673
      9 N         140.4379  143.2331  163.1099 N.ar    1  UNL1       -0.2704
     10 C         141.0746  143.5782  161.7963 C.ar    1  UNL1        0.2937
     11 O         140.2960  144.3345  160.7611 O.2     1  UNL1       -0.2639
     12 C         140.7216  141.0302  167.8075 C.ar    1  UNL1        0.1025
     13 C         141.2351  141.6468  169.0748 C.ar    1  UNL1        0.2305
     14 N         140.5984  141.3017  170.3884 N.ar    1  UNL1       -0.1893
     15 C         139.4481  140.3400  170.4346 C.ar    1  UNL1        0.2012
     16 N         138.9347  139.7234  169.1672 N.ar    1  UNL1       -0.2281
     17 C         139.5714  140.0686  167.8537 C.ar    1  UNL1        0.0678
     18 C         139.0579  139.4520  166.5862 C.3     1  UNL1        0.0406
     19 C         138.1438  139.4958  165.3978 C.3     1  UNL1        0.0063
     20 C         139.0828  138.3403  165.5795 C.3     1  UNL1        0.0063
     21 O         142.3854  142.6085  169.0286 O.3     1  UNL1       -0.4560
     22 C         143.6887  142.2506  169.6792 C.3     1  UNL1        0.2542
     23 N         143.1268  143.5121  160.2044 N.pl3   1  UNL1       -0.3094
     24 H         142.8740  144.3411  159.7375 H       1  UNL1        0.1487
     25 C         144.1487  142.5940  159.6021 C.3     1  UNL1        0.1349
     26 C         142.8453  138.7802  157.6005 C.ar    1  UNL1        0.1247
     27 C         143.1231  138.7967  159.0745 C.ar    1  UNL1        0.0212
     28 C         143.5576  140.0679  159.7417 C.ar    1  UNL1        0.0178
     29 C         143.7143  141.3228  158.9349 C.ar    1  UNL1        0.0789
     30 N         143.4365  141.3063  157.4609 N.ar    1  UNL1       -0.2451
     31 C         143.0020  140.0350  156.7938 C.ar    1  UNL1        0.1168
     32 S         142.4109  137.5090  156.9333 S.O2    1  UNL1        0.0101
     33 O         141.0199  137.7091  157.4579 O.2     1  UNL1       -0.1686
     34 O         143.8018  137.3089  156.4088 O.2     1  UNL1       -0.1686
     35 C         142.6278  135.8013  154.9873 C.3     1  UNL1        0.0276
     36 C         141.9764  136.2377  156.2661 C.3     1  UNL1        0.1560
     37 C         139.0224  143.6443  163.3882 C.3     1  UNL1        0.1844
     38 C         137.9109  143.1471  162.5123 C.3     1  UNL1        0.0337
     39 C         138.7186  144.5528  164.5425 C.3     1  UNL1        0.4162
     40 F         138.4147  145.4613  165.6968 F       1  UNL1       -0.1680
     41 F         137.5603  143.6798  164.9247 F       1  UNL1       -0.1680
     42 F         139.8768  145.4258  164.1603 F       1  UNL1       -0.1680
@<TRIPOS>BOND
     1    35    36    1
     2    36    32    1
     3    32    33    2
     4    32    34    2
     5    32    26    1
     6    26    27   ar
     7    27    28   ar
     8    28    29   ar
     9    29    25    1
    10    25    23    1
    11    23     1    1
    12     1     2   ar
    13     2     3   ar
    14     3     4   ar
    15     4     5   ar
    16     5     6   ar
    17     6    12    1
    18    12    13   ar
    19    13    21    1
    20    21    22    1
    21    13    14   ar
    22    14    15   ar
    23    15    16   ar
    24    16    17   ar
    25    17    18    1
    26    18    19    1
    27    19    20    1
    28     6     7   ar
    29     7     8   ar
    30     8     9   ar
    31     9    37    1
    32    37    38    1
    33    37    39    1
    34    39    40    1
    35    39    41    1
    36    39    42    1
    37     9    10   ar
    38    10    11    2
    39    29    30   ar
    40    30    31   ar
    41    31    26   ar
    42    10     1   ar
    43     8     3   ar
    44    17    12   ar
    45    20    18    1
    46    23    24    1
@<TRIPOS>MOLECULE
*****
 42 46 0 0 0
SMALL
GASTEIGER

@<TRIPOS>ATOM
      1 C         140.0898  143.3195  161.5688 C.ar    1  UNL1        0.1859
      2 N         139.2683  142.5266  162.5416 N.ar    1  UNL1       -0.2217
      3 C         139.8392  142.1562  163.8783 C.ar    1  UNL1        0.1361
      4 C         139.0176  141.3633  164.8511 C.ar    1  UNL1        0.1227
      5 N         139.5886  140.9929  166.1878 N.ar    1  UNL1       -0.2231
      6 C         140.9811  141.4153  166.5517 C.ar    1  UNL1        0.1696
      7 N         141.8027  142.2081  165.5789 N.ar    1  UNL1       -0.2076
      8 C         141.2317  142.5786  164.2422 C.ar    1  UNL1        0.1673
      9 N         142.0533  143.3715  163.2694 N.ar    1  UNL1       -0.2704
     10 C         141.4824  143.7419  161.9327 C.ar    1  UNL1        0.2937
     11 O         142.3039  144.5348  160.9598 O.2     1  UNL1       -0.2639
     12 C         141.5521  141.0448  167.8884 C.ar    1  UNL1        0.1025
     13 C         141.2180  141.8639  169.0998 C.ar    1  UNL1        0.2305
     14 N         141.7889  141.4934  170.4365 N.ar    1  UNL1       -0.1893
     15 C         142.6940  140.3038  170.5618 C.ar    1  UNL1        0.2012
     16 N         143.0281  139.4847  169.3504 N.ar    1  UNL1       -0.2281
     17 C         142.4571  139.8552  168.0138 C.ar    1  UNL1        0.0678
     18 C         142.7912  139.0361  166.8023 C.3     1  UNL1        0.0406
     19 C         143.8048  138.3344  165.9477 C.3     1  UNL1        0.0063
     20 C         142.3562  138.3190  165.5587 C.3     1  UNL1        0.0063
     21 O         140.3129  143.0535  168.9744 O.3     1  UNL1       -0.4560
     22 C         140.3885  144.1628  169.9814 C.3     1  UNL1        0.2542
     23 N         139.5189  143.6900  160.2320 N.pl3   1  UNL1       -0.3094
     24 H         139.5570  144.6236  159.9221 H       1  UNL1        0.1487
     25 C         138.8898  142.6379  159.3675 C.3     1  UNL1        0.1349
     26 C         141.2786  139.0395  158.1048 C.ar    1  UNL1        0.1247
     27 C         141.8792  140.4105  158.0066 C.ar    1  UNL1        0.0212
     28 C         141.0830  141.6100  158.4276 C.ar    1  UNL1        0.0178
     29 C         139.6861  141.4385  158.9466 C.ar    1  UNL1        0.0789
     30 N         139.0855  140.0674  159.0447 N.ar    1  UNL1       -0.2451
     31 C         139.8818  138.8679  158.6238 C.ar    1  UNL1        0.1168
     32 S         142.0749  137.8400  157.6838 S.O2    1  UNL1        0.0101
     33 O         143.2677  138.3734  158.4203 O.2     1  UNL1       -0.1686
     34 O         140.8820  137.3066  156.9474 O.2     1  UNL1       -0.1686
     35 C         143.4865  136.5908  155.8958 C.3     1  UNL1        0.0276
     36 C         142.8711  136.6404  157.2629 C.3     1  UNL1        0.1560
     37 C         143.4458  143.7939  163.6332 C.3     1  UNL1        0.1844
     38 C         143.7236  145.2199  164.0067 C.3     1  UNL1        0.0337
     39 C         144.5606  142.7904  163.6237 C.3     1  UNL1        0.4162
     40 F         145.6755  141.7868  163.6143 F       1  UNL1       -0.1680
     41 F         144.2458  142.4542  162.1962 F       1  UNL1       -0.1680
     42 F         144.8755  143.1266  165.0512 F       1  UNL1       -0.1680
@<TRIPOS>BOND
     1    35    36    1
     2    36    32    1
     3    32    33    2
     4    32    34    2
     5    32    26    1
     6    26    27   ar
     7    27    28   ar
     8    28    29   ar
     9    29    25    1
    10    25    23    1
    11    23     1    1
    12     1     2   ar
    13     2     3   ar
    14     3     4   ar
    15     4     5   ar
    16     5     6   ar
    17     6    12    1
    18    12    13   ar
    19    13    21    1
    20    21    22    1
    21    13    14   ar
    22    14    15   ar
    23    15    16   ar
    24    16    17   ar
    25    17    18    1
    26    18    19    1
    27    19    20    1
    28     6     7   ar
    29     7     8   ar
    30     8     9   ar
    31     9    37    1
    32    37    38    1
    33    37    39    1
    34    39    40    1
    35    39    41    1
    36    39    42    1
    37     9    10   ar
    38    10    11    2
    39    29    30   ar
    40    30    31   ar
    41    31    26   ar
    42    10     1   ar
    43     8     3   ar
    44    17    12   ar
    45    20    18    1
    46    23    24    1
@<TRIPOS>MOLECULE
*****
 42 46 0 0 0
SMALL
GASTEIGER

@<TRIPOS>ATOM
      1 C         138.1508  140.3358  160.1724 C.ar    1  UNL1        0.1859
      2 N         138.4457  139.0862  160.9481 N.ar    1  UNL1       -0.2217
      3 C         139.0339  139.1793  162.3248 C.ar    1  UNL1        0.1361
      4 C         139.3288  137.9297  163.1004 C.ar    1  UNL1        0.1227
      5 N         139.9169  138.0228  164.4771 N.ar    1  UNL1       -0.2231
      6 C         140.2103  139.3654  165.0782 C.ar    1  UNL1        0.1696
      7 N         139.9154  140.6150  164.3026 N.ar    1  UNL1       -0.2076
      8 C         139.3272  140.5219  162.9259 C.ar    1  UNL1        0.1673
      9 N         139.0323  141.7715  162.1502 N.ar    1  UNL1       -0.2704
     10 C         138.4441  141.6784  160.7735 C.ar    1  UNL1        0.2937
     11 O         138.1492  142.9280  159.9978 O.2     1  UNL1       -0.2639
     12 C         140.7985  139.4585  166.4550 C.ar    1  UNL1        0.1025
     13 C         139.9005  139.6289  167.6443 C.ar    1  UNL1        0.2305
     14 N         140.4887  139.7219  169.0211 N.ar    1  UNL1       -0.1893
     15 C         141.9749  139.6445  169.2084 C.ar    1  UNL1        0.2012
     16 N         142.8729  139.4741  168.0190 N.ar    1  UNL1       -0.2281
     17 C         142.2847  139.3811  166.6424 C.ar    1  UNL1        0.0678
     18 C         143.1827  139.2106  165.4530 C.3     1  UNL1        0.0406
     19 C         144.5163  139.4034  164.7939 C.3     1  UNL1        0.0063
     20 C         143.4045  138.7227  164.0520 C.3     1  UNL1        0.0063
     21 O         138.4142  139.7063  167.4569 O.3     1  UNL1       -0.4560
     22 C         137.6213  138.4542  167.2252 C.3     1  UNL1        0.2542
     23 N         137.5626  140.2427  158.7957 N.pl3   1  UNL1       -0.3094
     24 H         136.6004  140.0679  158.6822 H       1  UNL1        0.1487
     25 C         138.4404  140.4161  157.5918 C.3     1  UNL1        0.1349
     26 C         141.5355  137.3046  156.5973 C.ar    1  UNL1        0.1247
     27 C         141.9044  138.4850  157.4462 C.ar    1  UNL1        0.0212
     28 C         140.8728  139.5221  157.7777 C.ar    1  UNL1        0.0178
     29 C         139.4721  139.3789  157.2603 C.ar    1  UNL1        0.0789
     30 N         139.1032  138.1985  156.4114 N.ar    1  UNL1       -0.2451
     31 C         140.1349  137.1614  156.0799 C.ar    1  UNL1        0.1168
     32 S         142.5672  136.2675  156.2658 S.O2    1  UNL1        0.0101
     33 O         141.4792  135.3024  155.8989 O.2     1  UNL1       -0.1686
     34 O         143.6553  137.2326  156.6327 O.2     1  UNL1       -0.1686
     35 C         143.8628  134.1032  156.8883 C.3     1  UNL1        0.0276
     36 C         143.5990  135.2304  155.9343 C.3     1  UNL1        0.1560
     37 C         139.3256  143.1141  162.7513 C.3     1  UNL1        0.1844
     38 C         140.5514  143.8712  162.3336 C.3     1  UNL1        0.0337
     39 C         138.3933  143.6997  163.7700 C.3     1  UNL1        0.4162
     40 F         137.4608  144.2852  164.7887 F       1  UNL1       -0.1680
     41 F         139.5662  144.2398  164.5330 F       1  UNL1       -0.1680
     42 F         137.2203  143.1595  163.0069 F       1  UNL1       -0.1680
@<TRIPOS>BOND
     1    35    36    1
     2    36    32    1
     3    32    33    2
     4    32    34    2
     5    32    26    1
     6    26    27   ar
     7    27    28   ar
     8    28    29   ar
     9    29    25    1
    10    25    23    1
    11    23     1    1
    12     1     2   ar
    13     2     3   ar
    14     3     4   ar
    15     4     5   ar
    16     5     6   ar
    17     6    12    1
    18    12    13   ar
    19    13    21    1
    20    21    22    1
    21    13    14   ar
    22    14    15   ar
    23    15    16   ar
    24    16    17   ar
    25    17    18    1
    26    18    19    1
    27    19    20    1
    28     6     7   ar
    29     7     8   ar
    30     8     9   ar
    31     9    37    1
    32    37    38    1
    33    37    39    1
    34    39    40    1
    35    39    41    1
    36    39    42    1
    37     9    10   ar
    38    10    11    2
    39    29    30   ar
    40    30    31   ar
    41    31    26   ar
    42    10     1   ar
    43     8     3   ar
    44    17    12   ar
    45    20    18    1
    46    23    24    1
@<TRIPOS>MOLECULE
*****
 42 46 0 0 0
SMALL
GASTEIGER

@<TRIPOS>ATOM
      1 C         142.2621  143.5210  161.6132 C.ar    1  UNL1        0.1859
      2 N         143.0960  142.7326  162.5792 N.ar    1  UNL1       -0.2217
      3 C         142.5209  142.3164  163.9006 C.ar    1  UNL1        0.1361
      4 C         143.3547  141.5281  164.8666 C.ar    1  UNL1        0.1227
      5 N         142.7796  141.1119  166.1879 N.ar    1  UNL1       -0.2231
      6 C         141.3707  141.4841  166.5434 C.ar    1  UNL1        0.1696
      7 N         140.5368  142.2725  165.5774 N.ar    1  UNL1       -0.2076
      8 C         141.1119  142.6887  164.2560 C.ar    1  UNL1        0.1673
      9 N         140.2781  143.4771  163.2900 N.ar    1  UNL1       -0.2704
     10 C         140.8532  143.8932  161.9687 C.ar    1  UNL1        0.2937
     11 O         140.0193  144.6816  161.0026 O.2     1  UNL1       -0.2639
     12 C         140.7956  141.0679  167.8648 C.ar    1  UNL1        0.1025
     13 C         141.3606  141.6253  169.1376 C.ar    1  UNL1        0.2305
     14 N         140.7856  141.2091  170.4590 N.ar    1  UNL1       -0.1893
     15 C         139.6454  140.2356  170.5076 C.ar    1  UNL1        0.2012
     16 N         139.0804  139.6782  169.2347 N.ar    1  UNL1       -0.2281
     17 C         139.6555  140.0944  167.9134 C.ar    1  UNL1        0.0678
     18 C         139.0905  139.5371  166.6405 C.3     1  UNL1        0.0406
     19 C         138.2092  139.6855  165.4358 C.3     1  UNL1        0.0063
     20 C         138.9932  138.4233  165.6405 C.3     1  UNL1        0.0063
     21 O         142.5008  142.5988  169.0890 O.3     1  UNL1       -0.4560
     22 C         143.7705  142.3044  169.8314 C.3     1  UNL1        0.2542
     23 N         142.8372  143.9372  160.2918 N.pl3   1  UNL1       -0.3094
     24 H         143.2665  144.8181  160.1973 H       1  UNL1        0.1487
     25 C         142.7582  143.0112  159.1144 C.3     1  UNL1        0.1349
     26 C         138.7495  141.8340  157.4428 C.ar    1  UNL1        0.1247
     27 C         139.3886  143.1238  157.0209 C.ar    1  UNL1        0.0212
     28 C         140.7248  143.5162  157.5781 C.ar    1  UNL1        0.0178
     29 C         141.4220  142.6188  158.5572 C.ar    1  UNL1        0.0789
     30 N         140.7829  141.3290  158.9792 N.ar    1  UNL1       -0.2451
     31 C         139.4466  140.9366  158.4219 C.ar    1  UNL1        0.1168
     32 S         137.4133  141.4416  156.8856 S.O2    1  UNL1        0.0101
     33 O         137.7497  139.9952  157.0975 O.2     1  UNL1       -0.1686
     34 O         137.0769  142.8879  156.6738 O.2     1  UNL1       -0.1686
     35 C         135.9989  140.1596  155.1232 C.3     1  UNL1        0.0276
     36 C         136.0770  141.0492  156.3284 C.3     1  UNL1        0.1560
     37 C         138.8691  143.8493  163.6454 C.3     1  UNL1        0.1844
     38 C         137.7290  143.3626  162.8008 C.3     1  UNL1        0.0337
     39 C         138.6003  144.7082  164.8454 C.3     1  UNL1        0.4162
     40 F         138.3314  145.5671  166.0454 F       1  UNL1       -0.1680
     41 F         137.3735  143.9002  165.1488 F       1  UNL1       -0.1680
     42 F         139.8271  145.5161  164.5420 F       1  UNL1       -0.1680
@<TRIPOS>BOND
     1    35    36    1
     2    36    32    1
     3    32    33    2
     4    32    34    2
     5    32    26    1
     6    26    27   ar
     7    27    28   ar
     8    28    29   ar
     9    29    25    1
    10    25    23    1
    11    23     1    1
    12     1     2   ar
    13     2     3   ar
    14     3     4   ar
    15     4     5   ar
    16     5     6   ar
    17     6    12    1
    18    12    13   ar
    19    13    21    1
    20    21    22    1
    21    13    14   ar
    22    14    15   ar
    23    15    16   ar
    24    16    17   ar
    25    17    18    1
    26    18    19    1
    27    19    20    1
    28     6     7   ar
    29     7     8   ar
    30     8     9   ar
    31     9    37    1
    32    37    38    1
    33    37    39    1
    34    39    40    1
    35    39    41    1
    36    39    42    1
    37     9    10   ar
    38    10    11    2
    39    29    30   ar
    40    30    31   ar
    41    31    26   ar
    42    10     1   ar
    43     8     3   ar
    44    17    12   ar
    45    20    18    1
    46    23    24    1
@<TRIPOS>MOLECULE
*****
 42 46 0 0 0
SMALL
GASTEIGER

@<TRIPOS>ATOM
      1 C         142.4459  138.0330  162.1748 C.ar    1  UNL1        0.1859
      2 N         143.4426  138.7180  163.0622 N.ar    1  UNL1       -0.2217
      3 C         142.9754  139.4782  164.2680 C.ar    1  UNL1        0.1361
      4 C         143.9720  140.1632  165.1553 C.ar    1  UNL1        0.1227
      5 N         143.5048  140.9233  166.3611 N.ar    1  UNL1       -0.2231
      6 C         142.0409  140.9984  166.6795 C.ar    1  UNL1        0.1696
      7 N         141.0443  140.3134  165.7922 N.ar    1  UNL1       -0.2076
      8 C         141.5115  139.5533  164.5864 C.ar    1  UNL1        0.1673
      9 N         140.5148  138.8682  163.6990 N.ar    1  UNL1       -0.2704
     10 C         140.9820  138.1081  162.4933 C.ar    1  UNL1        0.2937
     11 O         139.9854  137.4230  161.6059 O.2     1  UNL1       -0.2639
     12 C         141.5737  141.7585  167.8853 C.ar    1  UNL1        0.1025
     13 C         142.0745  141.3837  169.2487 C.ar    1  UNL1        0.2305
     14 N         141.6073  142.1438  170.4545 N.ar    1  UNL1       -0.1893
     15 C         140.6393  143.2788  170.2969 C.ar    1  UNL1        0.2012
     16 N         140.1385  143.6537  168.9335 N.ar    1  UNL1       -0.2281
     17 C         140.6057  142.8935  167.7278 C.ar    1  UNL1        0.0678
     18 C         140.1050  143.2684  166.3644 C.3     1  UNL1        0.0406
     19 C         140.3470  143.8690  165.0113 C.3     1  UNL1        0.0063
     20 C         138.9956  143.3170  165.3560 C.3     1  UNL1        0.0063
     21 O         143.0425  140.2487  169.4062 O.3     1  UNL1       -0.4560
     22 C         142.5655  138.9218  169.9182 C.3     1  UNL1        0.2542
     23 N         142.9131  137.2729  160.9690 N.pl3   1  UNL1       -0.3094
     24 H         143.2564  136.3555  161.0680 H       1  UNL1        0.1487
     25 C         142.8573  137.9105  159.6124 C.3     1  UNL1        0.1349
     26 C         141.8330  142.2745  159.2180 C.ar    1  UNL1        0.1247
     27 C         143.2555  141.8554  159.4439 C.ar    1  UNL1        0.0212
     28 C         143.5969  140.4008  159.5753 C.ar    1  UNL1        0.0178
     29 C         142.5158  139.3651  159.4810 C.ar    1  UNL1        0.0789
     30 N         141.0934  139.7842  159.2551 N.ar    1  UNL1       -0.2451
     31 C         140.7520  141.2390  159.1237 C.ar    1  UNL1        0.1168
     32 S         141.4916  143.7292  159.0866 S.O2    1  UNL1        0.0101
     33 O         140.0435  143.3744  158.9219 O.2     1  UNL1       -0.1686
     34 O         142.9397  144.0840  159.2512 O.2     1  UNL1       -0.1686
     35 C         141.3112  145.8757  157.6339 C.3     1  UNL1        0.0276
     36 C         141.1502  145.1840  158.9551 C.3     1  UNL1        0.1560
     37 C         139.0509  138.9433  164.0175 C.3     1  UNL1        0.1844
     38 C         138.1354  139.7552  163.1500 C.3     1  UNL1        0.0337
     39 C         138.5026  138.2065  165.2034 C.3     1  UNL1        0.4162
     40 F         137.9543  137.4696  166.3893 F       1  UNL1       -0.1680
     41 F         137.7350  139.4298  165.6085 F       1  UNL1       -0.1680
     42 F         139.2702  136.9831  164.7982 F       1  UNL1       -0.1680
@<TRIPOS>BOND
     1    35    36    1
     2    36    32    1
     3    32    33    2
     4    32    34    2
     5    32    26    1
     6    26    27   ar
     7    27    28   ar
     8    28    29   ar
     9    29    25    1
    10    25    23    1
    11    23     1    1
    12     1     2   ar
    13     2     3   ar
    14     3     4   ar
    15     4     5   ar
    16     5     6   ar
    17     6    12    1
    18    12    13   ar
    19    13    21    1
    20    21    22    1
    21    13    14   ar
    22    14    15   ar
    23    15    16   ar
    24    16    17   ar
    25    17    18    1
    26    18    19    1
    27    19    20    1
    28     6     7   ar
    29     7     8   ar
    30     8     9   ar
    31     9    37    1
    32    37    38    1
    33    37    39    1
    34    39    40    1
    35    39    41    1
    36    39    42    1
    37     9    10   ar
    38    10    11    2
    39    29    30   ar
    40    30    31   ar
    41    31    26   ar
    42    10     1   ar
    43     8     3   ar
    44    17    12   ar
    45    20    18    1
    46    23    24    1
@<TRIPOS>MOLECULE
*****
 42 46 0 0 0
SMALL
GASTEIGER

@<TRIPOS>ATOM
      1 C         139.9829  143.7184  161.8693 C.ar    1  UNL1        0.1859
      2 N         139.1289  142.8782  162.7719 N.ar    1  UNL1       -0.2217
      3 C         139.7061  142.3078  164.0335 C.ar    1  UNL1        0.1361
      4 C         138.8521  141.4676  164.9361 C.ar    1  UNL1        0.1227
      5 N         139.4293  140.8972  166.1976 N.ar    1  UNL1       -0.2231
      6 C         140.8605  141.1671  166.5565 C.ar    1  UNL1        0.1696
      7 N         141.7145  142.0073  165.6539 N.ar    1  UNL1       -0.2076
      8 C         141.1373  142.5777  164.3924 C.ar    1  UNL1        0.1673
      9 N         141.9913  143.4179  163.4898 N.ar    1  UNL1       -0.2704
     10 C         141.4141  143.9883  162.2282 C.ar    1  UNL1        0.2937
     11 O         142.2681  144.8285  161.3256 O.2     1  UNL1       -0.2639
     12 C         141.4377  140.5967  167.8181 C.ar    1  UNL1        0.1025
     13 C         140.9950  141.1238  169.1508 C.ar    1  UNL1        0.2305
     14 N         141.5722  140.5534  170.4124 N.ar    1  UNL1       -0.1893
     15 C         142.5921  139.4559  170.3412 C.ar    1  UNL1        0.2012
     16 N         143.0349  138.9287  169.0085 N.ar    1  UNL1       -0.2281
     17 C         142.4577  139.4991  167.7470 C.ar    1  UNL1        0.0678
     18 C         142.9004  138.9720  166.4142 C.3     1  UNL1        0.0406
     19 C         143.9729  138.7852  165.3823 C.3     1  UNL1        0.0063
     20 C         142.5948  138.2458  165.1378 C.3     1  UNL1        0.0063
     21 O         139.9750  142.2214  169.2219 O.3     1  UNL1       -0.4560
     22 C         140.4119  143.6372  169.4559 C.3     1  UNL1        0.2542
     23 N         139.4057  144.2888  160.6077 N.pl3   1  UNL1       -0.3094
     24 H         138.6792  144.9515  160.6545 H       1  UNL1        0.1487
     25 C         139.9355  143.8495  159.2750 C.3     1  UNL1        0.1349
     26 C         137.3822  141.3295  156.5584 C.ar    1  UNL1        0.1247
     27 C         137.7453  140.8281  157.9247 C.ar    1  UNL1        0.0212
     28 C         138.5964  141.6680  158.8302 C.ar    1  UNL1        0.0178
     29 C         139.0844  143.0096  158.3694 C.ar    1  UNL1        0.0789
     30 N         138.7213  143.5110  157.0032 N.ar    1  UNL1       -0.2451
     31 C         137.8701  142.6710  156.0976 C.ar    1  UNL1        0.1168
     32 S         136.5311  140.4895  155.6529 S.O2    1  UNL1        0.0101
     33 O         135.5292  140.3158  156.7556 O.2     1  UNL1       -0.1686
     34 O         137.5329  140.6633  154.5501 O.2     1  UNL1       -0.1686
     35 C         136.2528  138.4198  154.1072 C.3     1  UNL1        0.0276
     36 C         135.6799  139.6495  154.7473 C.3     1  UNL1        0.1560
     37 C         143.4225  143.6878  163.8487 C.3     1  UNL1        0.1844
     38 C         143.8349  145.0536  164.3119 C.3     1  UNL1        0.0337
     39 C         144.4414  142.5918  163.7445 C.3     1  UNL1        0.4162
     40 F         145.4602  141.4959  163.6402 F       1  UNL1       -0.1680
     41 F         144.9199  142.9048  165.1312 F       1  UNL1       -0.1680
     42 F         143.9628  142.2789  162.3578 F       1  UNL1       -0.1680
@<TRIPOS>BOND
     1    35    36    1
     2    36    32    1
     3    32    33    2
     4    32    34    2
     5    32    26    1
     6    26    27   ar
     7    27    28   ar
     8    28    29   ar
     9    29    25    1
    10    25    23    1
    11    23     1    1
    12     1     2   ar
    13     2     3   ar
    14     3     4   ar
    15     4     5   ar
    16     5     6   ar
    17     6    12    1
    18    12    13   ar
    19    13    21    1
    20    21    22    1
    21    13    14   ar
    22    14    15   ar
    23    15    16   ar
    24    16    17   ar
    25    17    18    1
    26    18    19    1
    27    19    20    1
    28     6     7   ar
    29     7     8   ar
    30     8     9   ar
    31     9    37    1
    32    37    38    1
    33    37    39    1
    34    39    40    1
    35    39    41    1
    36    39    42    1
    37     9    10   ar
    38    10    11    2
    39    29    30   ar
    40    30    31   ar
    41    31    26   ar
    42    10     1   ar
    43     8     3   ar
    44    17    12   ar
    45    20    18    1
    46    23    24    1
@<TRIPOS>MOLECULE
*****
 42 46 0 0 0
SMALL
GASTEIGER

@<TRIPOS>ATOM
      1 C         143.4802  141.5424  161.3299 C.ar    1  UNL1        0.1859
      2 N         143.5652  140.3454  162.2299 N.ar    1  UNL1       -0.2217
      3 C         142.9293  140.3814  163.5880 C.ar    1  UNL1        0.1361
      4 C         143.0143  139.1844  164.4879 C.ar    1  UNL1        0.1227
      5 N         142.3784  139.2205  165.8459 N.ar    1  UNL1       -0.2231
      6 C         141.6575  140.4536  166.3040 C.ar    1  UNL1        0.1696
      7 N         141.5725  141.6506  165.4041 N.ar    1  UNL1       -0.2076
      8 C         142.2084  141.6145  164.0461 C.ar    1  UNL1        0.1673
      9 N         142.1235  142.8116  163.1461 N.ar    1  UNL1       -0.2704
     10 C         142.7594  142.7755  161.7881 C.ar    1  UNL1        0.2937
     11 O         142.6744  143.9726  160.8881 O.2     1  UNL1       -0.2639
     12 C         141.0216  140.4896  167.6621 C.ar    1  UNL1        0.1025
     13 C         141.7736  141.0609  168.8275 C.ar    1  UNL1        0.2305
     14 N         141.1377  141.0969  170.1856 N.ar    1  UNL1       -0.1893
     15 C         139.7498  140.5616  170.3783 C.ar    1  UNL1        0.2012
     16 N         138.9977  139.9903  169.2128 N.ar    1  UNL1       -0.2281
     17 C         139.6337  139.9543  167.8548 C.ar    1  UNL1        0.0678
     18 C         138.8816  139.3830  166.6894 C.3     1  UNL1        0.0406
     19 C         138.2072  138.2212  166.0221 C.3     1  UNL1        0.0063
     20 C         138.2536  139.5554  165.3382 C.3     1  UNL1        0.0063
     21 O         143.1615  141.5961  168.6348 O.3     1  UNL1       -0.4560
     22 C         143.8458  142.3259  169.7526 C.3     1  UNL1        0.2542
     23 N         144.1161  141.5064  159.9718 N.pl3   1  UNL1       -0.3094
     24 H         145.0937  141.5827  159.8839 H       1  UNL1        0.1487
     25 C         143.2626  141.3542  158.7478 C.3     1  UNL1        0.1349
     26 C         143.0724  137.3960  156.6156 C.ar    1  UNL1        0.1247
     27 C         142.7099  137.4834  158.0685 C.ar    1  UNL1        0.0212
     28 C         142.7732  138.8028  158.7793 C.ar    1  UNL1        0.0178
     29 C         143.1992  140.0348  158.0371 C.ar    1  UNL1        0.0789
     30 N         143.5618  139.9474  156.5842 N.ar    1  UNL1       -0.2451
     31 C         143.4984  138.6279  155.8735 C.ar    1  UNL1        0.1168
     32 S         143.0090  136.0766  155.9049 S.O2    1  UNL1        0.0101
     33 O         144.4367  136.2398  155.4746 O.2     1  UNL1       -0.1686
     34 O         141.5814  135.9134  156.3351 O.2     1  UNL1       -0.1686
     35 C         143.6193  133.5541  155.7846 C.3     1  UNL1        0.0276
     36 C         142.9456  134.7572  155.1941 C.3     1  UNL1        0.1560
     37 C         141.4026  144.0446  163.6042 C.3     1  UNL1        0.1844
     38 C         142.1775  145.2819  163.9492 C.3     1  UNL1        0.0337
     39 C         139.9069  144.0406  163.7174 C.3     1  UNL1        0.4162
     40 F         138.4112  144.0365  163.8305 F       1  UNL1       -0.1680
     41 F         140.0166  144.3599  165.1789 F       1  UNL1       -0.1680
     42 F         139.7972  143.7212  162.2559 F       1  UNL1       -0.1680
@<TRIPOS>BOND
     1    35    36    1
     2    36    32    1
     3    32    33    2
     4    32    34    2
     5    32    26    1
     6    26    27   ar
     7    27    28   ar
     8    28    29   ar
     9    29    25    1
    10    25    23    1
    11    23     1    1
    12     1     2   ar
    13     2     3   ar
    14     3     4   ar
    15     4     5   ar
    16     5     6   ar
    17     6    12    1
    18    12    13   ar
    19    13    21    1
    20    21    22    1
    21    13    14   ar
    22    14    15   ar
    23    15    16   ar
    24    16    17   ar
    25    17    18    1
    26    18    19    1
    27    19    20    1
    28     6     7   ar
    29     7     8   ar
    30     8     9   ar
    31     9    37    1
    32    37    38    1
    33    37    39    1
    34    39    40    1
    35    39    41    1
    36    39    42    1
    37     9    10   ar
    38    10    11    2
    39    29    30   ar
    40    30    31   ar
    41    31    26   ar
    42    10     1   ar
    43     8     3   ar
    44    17    12   ar
    45    20    18    1
    46    23    24    1
