@<TRIPOS>MOLECULE
*****
 38 42 0 0 0
SMALL
GASTEIGER

@<TRIPOS>ATOM
      1 C         141.9265  139.6784  160.7566 C.3     1  UNL1        0.0758
      2 C         140.7968  138.9137  160.1330 C.3     1  UNL1        0.0370
      3 C         140.9208  138.4057  158.7272 C.3     1  UNL1        0.0741
      4 N         142.1746  138.6625  157.9448 N.3     1  UNL1       -0.2688
      5 C         143.3044  139.4273  158.5684 C.3     1  UNL1        0.0741
      6 C         143.1803  139.9352  159.9742 C.3     1  UNL1        0.0370
      7 O         142.1632  137.7770  163.0650 O.2     1  UNL1       -0.2526
      8 C         141.9208  139.2357  163.3167 C.2     1  UNL1        0.3040
      9 N         141.8024  140.1864  162.1625 N.am    1  UNL1       -0.2903
     10 N         141.7968  139.7437  164.7226 N.am    1  UNL1       -0.2614
     11 C         141.8564  139.1193  166.0851 C.3     1  UNL1        0.1126
     12 C         141.6214  140.4621  166.7109 C.3     1  UNL1        0.0976
     13 C         141.5618  141.0866  165.3483 C.3     1  UNL1        0.1126
     14 H         141.6433  141.1438  162.3278 H       1  UNL1        0.1509
     15 N         141.4973  140.9702  168.1167 N.3     1  UNL1       -0.2680
     16 C         142.7216  141.3984  168.8701 C.3     1  UNL1        0.0978
     17 C         142.5976  141.9065  170.2761 C.3     1  UNL1        0.1681
     18 S         141.2493  141.9862  170.9285 S.O2    1  UNL1       -0.0072
     19 O         140.1996  142.2460  171.9680 O.2     1  UNL1       -0.1729
     20 O         142.1090  142.5047  172.0430 O.2     1  UNL1       -0.1729
     21 C         140.0250  141.5579  170.1750 C.3     1  UNL1        0.1681
     22 C         140.1490  141.0499  168.7692 C.3     1  UNL1        0.0978
     23 C         142.2987  138.1545  156.5389 C.3     1  UNL1        0.1007
     24 C         142.1899  136.6847  156.2601 C.ar    1  UNL1        0.0129
     25 C         141.2323  136.0370  155.3045 C.ar    1  UNL1        0.0176
     26 C         141.4702  134.5565  155.3418 C.ar    1  UNL1        0.0799
     27 N         142.5750  134.2891  156.3206 N.ar    1  UNL1       -0.3038
     28 C         143.0198  135.6044  156.8882 C.ar    1  UNL1        0.0772
     29 C         143.1364  132.9429  156.6704 C.ar    1  UNL1        0.0640
     30 C         142.4820  131.6985  156.1478 C.ar    1  UNL1        0.0175
     31 C         143.0434  130.3523  156.4976 C.ar    1  UNL1        0.0053
     32 C         144.2592  130.2503  157.3700 C.ar    1  UNL1        0.0715
     33 C         144.9137  131.4947  157.8927 C.ar    1  UNL1        0.0053
     34 C         144.3523  132.8409  157.5429 C.ar    1  UNL1        0.0175
     35 C         144.8206  128.9041  157.7198 C.3     1  UNL1        0.4186
     36 F         145.3820  127.5578  158.0697 F       1  UNL1       -0.1659
     37 F         145.0210  128.6091  156.2629 F       1  UNL1       -0.1659
     38 F         144.6201  129.1990  159.1769 F       1  UNL1       -0.1659
@<TRIPOS>BOND
     1     7     8    2
     2     8     9   am
     3     9     1    1
     4     1     2    1
     5     2     3    1
     6     3     4    1
     7     4    23    1
     8    23    24    1
     9    24    25   ar
    10    25    26   ar
    11    26    27   ar
    12    27    29    1
    13    29    30   ar
    14    30    31   ar
    15    31    32   ar
    16    32    35    1
    17    35    36    1
    18    35    37    1
    19    35    38    1
    20    32    33   ar
    21    33    34   ar
    22    27    28   ar
    23     4     5    1
    24     5     6    1
    25     8    10   am
    26    10    11    1
    27    11    12    1
    28    12    15    1
    29    15    16    1
    30    16    17    1
    31    17    18    1
    32    18    19    2
    33    18    20    2
    34    18    21    1
    35    21    22    1
    36    12    13    1
    37     6     1    1
    38    13    10    1
    39    28    24   ar
    40    22    15    1
    41    34    29   ar
    42     9    14    1
@<TRIPOS>MOLECULE
*****
 38 42 0 0 0
SMALL
GASTEIGER

@<TRIPOS>ATOM
      1 C         139.5895  141.5804  160.2258 C.3     1  UNL1        0.0758
      2 C         139.3373  142.8662  159.4957 C.3     1  UNL1        0.0370
      3 C         138.9969  142.8449  158.0350 C.3     1  UNL1        0.0741
      4 N         138.9087  141.5378  157.3045 N.3     1  UNL1       -0.2688
      5 C         139.1609  140.2521  158.0346 C.3     1  UNL1        0.0741
      6 C         139.5013  140.2734  159.4952 C.3     1  UNL1        0.0370
      7 O         137.4363  141.1700  162.2740 O.2     1  UNL1       -0.2526
      8 C         138.8533  141.3965  162.7106 C.2     1  UNL1        0.3040
      9 N         139.9299  141.6017  161.6866 N.am    1  UNL1       -0.2903
     10 N         139.1938  141.4177  164.1714 N.am    1  UNL1       -0.2614
     11 C         138.4165  141.2565  165.4440 C.3     1  UNL1        0.1126
     12 C         139.6753  141.4478  166.2371 C.3     1  UNL1        0.0976
     13 C         140.4526  141.6090  164.9644 C.3     1  UNL1        0.1126
     14 H         140.8600  141.7503  161.9731 H       1  UNL1        0.1509
     15 N         140.0158  141.4691  167.6978 N.3     1  UNL1       -0.2680
     16 C         140.6563  142.6839  168.3009 C.3     1  UNL1        0.0978
     17 C         140.9968  142.7052  169.7617 C.3     1  UNL1        0.1681
     18 S         140.6967  141.5116  170.6192 S.O2    1  UNL1       -0.0072
     19 O         140.6084  140.6341  171.8325 O.2     1  UNL1       -0.1729
     20 O         141.3066  142.4217  171.6437 O.2     1  UNL1       -0.1729
     21 C         140.0561  140.2967  170.0160 C.3     1  UNL1        0.1681
     22 C         139.7156  140.2755  168.5553 C.3     1  UNL1        0.0978
     23 C         138.5682  141.5166  155.8437 C.3     1  UNL1        0.1007
     24 C         137.1853  141.1401  155.4013 C.ar    1  UNL1        0.0129
     25 C         136.7363  140.9427  153.9838 C.ar    1  UNL1        0.0176
     26 C         135.2821  140.5755  154.0051 C.ar    1  UNL1        0.0799
     27 N         134.8323  140.5460  155.4359 N.ar    1  UNL1       -0.3038
     28 C         136.0086  140.8950  156.2987 C.ar    1  UNL1        0.0772
     29 C         133.4492  140.2241  155.9189 C.ar    1  UNL1        0.0640
     30 C         132.3004  141.1164  155.5530 C.ar    1  UNL1        0.0175
     31 C         130.9173  140.7945  156.0360 C.ar    1  UNL1        0.0053
     32 C         130.6830  139.5803  156.8849 C.ar    1  UNL1        0.0715
     33 C         131.8318  138.6880  157.2508 C.ar    1  UNL1        0.0053
     34 C         133.2149  139.0099  156.7678 C.ar    1  UNL1        0.0175
     35 C         129.2998  139.2584  157.3679 C.3     1  UNL1        0.4186
     36 F         127.9167  138.9365  157.8510 F       1  UNL1       -0.1659
     37 F         128.7895  140.5275  156.7523 F       1  UNL1       -0.1659
     38 F         129.8102  137.9893  157.9836 F       1  UNL1       -0.1659
@<TRIPOS>BOND
     1     7     8    2
     2     8     9   am
     3     9     1    1
     4     1     2    1
     5     2     3    1
     6     3     4    1
     7     4    23    1
     8    23    24    1
     9    24    25   ar
    10    25    26   ar
    11    26    27   ar
    12    27    29    1
    13    29    30   ar
    14    30    31   ar
    15    31    32   ar
    16    32    35    1
    17    35    36    1
    18    35    37    1
    19    35    38    1
    20    32    33   ar
    21    33    34   ar
    22    27    28   ar
    23     4     5    1
    24     5     6    1
    25     8    10   am
    26    10    11    1
    27    11    12    1
    28    12    15    1
    29    15    16    1
    30    16    17    1
    31    17    18    1
    32    18    19    2
    33    18    20    2
    34    18    21    1
    35    21    22    1
    36    12    13    1
    37     6     1    1
    38    13    10    1
    39    28    24   ar
    40    22    15    1
    41    34    29   ar
    42     9    14    1
@<TRIPOS>MOLECULE
*****
 38 42 0 0 0
SMALL
GASTEIGER

@<TRIPOS>ATOM
      1 C         142.5781  138.9390  159.4548 C.3     1  UNL1        0.0758
      2 C         143.7254  139.6796  160.0754 C.3     1  UNL1        0.0370
      3 C         143.5097  141.0454  160.6567 C.3     1  UNL1        0.0741
      4 N         142.1467  141.6706  160.6175 N.3     1  UNL1       -0.2688
      5 C         140.9995  140.9299  159.9969 C.3     1  UNL1        0.0741
      6 C         141.2152  139.5641  159.4156 C.3     1  UNL1        0.0370
      7 O         142.9755  138.6123  156.4992 O.2     1  UNL1       -0.2526
      8 C         142.9925  137.4098  157.3957 C.2     1  UNL1        0.3040
      9 N         142.7938  137.5731  158.8735 N.am    1  UNL1       -0.2903
     10 N         143.2081  136.0439  156.8143 N.am    1  UNL1       -0.2614
     11 C         143.4348  135.5024  155.4341 C.3     1  UNL1        0.1126
     12 C         143.5131  134.1122  155.9922 C.3     1  UNL1        0.0976
     13 C         143.2864  134.6538  157.3726 C.3     1  UNL1        0.1126
     14 H         142.8049  136.7838  159.4618 H       1  UNL1        0.1509
     15 N         143.7287  132.7464  155.4109 N.3     1  UNL1       -0.2680
     16 C         142.9947  132.3354  154.1691 C.3     1  UNL1        0.0978
     17 C         143.2103  130.9695  153.5877 C.3     1  UNL1        0.1681
     18 S         144.1600  130.0147  154.2483 S.O2    1  UNL1       -0.0072
     19 O         144.9500  128.7666  154.5090 O.2     1  UNL1       -0.1729
     20 O         143.7003  129.1702  153.0969 O.2     1  UNL1       -0.1729
     21 C         144.8940  130.4257  155.4902 C.3     1  UNL1        0.1681
     22 C         144.6784  131.7915  156.0715 C.3     1  UNL1        0.0978
     23 C         141.9311  143.0365  161.1989 C.3     1  UNL1        0.1007
     24 C         141.2835  143.1855  162.5436 C.ar    1  UNL1        0.0129
     25 C         140.4745  144.3605  163.0072 C.ar    1  UNL1        0.0176
     26 C         140.0223  144.0869  164.4110 C.ar    1  UNL1        0.0799
     27 N         140.5518  142.7428  164.8150 N.ar    1  UNL1       -0.3038
     28 C         141.3313  142.1858  163.6609 C.ar    1  UNL1        0.0772
     29 C         140.3391  142.0734  166.1404 C.ar    1  UNL1        0.0640
     30 C         140.6800  142.7969  167.4093 C.ar    1  UNL1        0.0175
     31 C         140.4673  142.1275  168.7347 C.ar    1  UNL1        0.0053
     32 C         139.9138  140.7346  168.7911 C.ar    1  UNL1        0.0715
     33 C         139.5729  140.0110  167.5222 C.ar    1  UNL1        0.0053
     34 C         139.7855  140.6804  166.1968 C.ar    1  UNL1        0.0175
     35 C         139.7011  140.0652  170.1165 C.3     1  UNL1        0.4186
     36 F         139.4883  139.3958  171.4419 F       1  UNL1       -0.1659
     37 F         141.1856  139.9426  170.2928 F       1  UNL1       -0.1659
     38 F         138.2165  140.1878  169.9403 F       1  UNL1       -0.1659
@<TRIPOS>BOND
     1     7     8    2
     2     8     9   am
     3     9     1    1
     4     1     2    1
     5     2     3    1
     6     3     4    1
     7     4    23    1
     8    23    24    1
     9    24    25   ar
    10    25    26   ar
    11    26    27   ar
    12    27    29    1
    13    29    30   ar
    14    30    31   ar
    15    31    32   ar
    16    32    35    1
    17    35    36    1
    18    35    37    1
    19    35    38    1
    20    32    33   ar
    21    33    34   ar
    22    27    28   ar
    23     4     5    1
    24     5     6    1
    25     8    10   am
    26    10    11    1
    27    11    12    1
    28    12    15    1
    29    15    16    1
    30    16    17    1
    31    17    18    1
    32    18    19    2
    33    18    20    2
    34    18    21    1
    35    21    22    1
    36    12    13    1
    37     6     1    1
    38    13    10    1
    39    28    24   ar
    40    22    15    1
    41    34    29   ar
    42     9    14    1
@<TRIPOS>MOLECULE
*****
 38 42 0 0 0
SMALL
GASTEIGER

@<TRIPOS>ATOM
      1 C         139.6038  142.8466  160.1848 C.3     1  UNL1        0.0758
      2 C         140.5085  143.8440  159.5241 C.3     1  UNL1        0.0370
      3 C         140.3023  144.2039  158.0826 C.3     1  UNL1        0.0741
      4 N         139.1915  143.5663  157.3019 N.3     1  UNL1       -0.2688
      5 C         138.2868  142.5689  157.9626 C.3     1  UNL1        0.0741
      6 C         138.4929  142.2091  159.4041 C.3     1  UNL1        0.0370
      7 O         138.6377  144.6913  162.3445 O.2     1  UNL1       -0.2526
      8 C         139.3269  143.4090  162.7062 C.2     1  UNL1        0.3040
      9 N         139.8099  142.4867  161.6264 N.am    1  UNL1       -0.2903
     10 N         139.5331  143.0491  164.1478 N.am    1  UNL1       -0.2614
     11 C         139.2003  143.6946  165.4601 C.3     1  UNL1        0.1126
     12 C         139.8246  142.5400  166.1864 C.3     1  UNL1        0.0976
     13 C         140.1574  141.8945  164.8739 C.3     1  UNL1        0.1126
     14 H         140.2623  141.6451  161.8638 H       1  UNL1        0.1509
     15 N         140.0308  142.1801  167.6278 N.3     1  UNL1       -0.2680
     16 C         140.4028  143.2417  168.6201 C.3     1  UNL1        0.0978
     17 C         140.6090  142.8818  170.0617 C.3     1  UNL1        0.1681
     18 S         140.4431  141.4602  170.5109 S.O2    1  UNL1       -0.0072
     19 O         140.4014  140.2630  171.4135 O.2     1  UNL1       -0.1729
     20 O         140.8007  142.1061  171.8167 O.2     1  UNL1       -0.1729
     21 C         140.0711  140.3986  169.5185 C.3     1  UNL1        0.1681
     22 C         139.8649  140.7586  168.0770 C.3     1  UNL1        0.0978
     23 C         138.9853  143.9262  155.8603 C.3     1  UNL1        0.1007
     24 C         139.4934  145.2358  155.3342 C.ar    1  UNL1        0.0129
     25 C         140.7995  145.4562  154.6304 C.ar    1  UNL1        0.0176
     26 C         140.8979  146.9115  154.2807 C.ar    1  UNL1        0.0799
     27 N         139.6525  147.5907  154.7684 N.ar    1  UNL1       -0.3038
     28 C         138.7845  146.5550  155.4195 C.ar    1  UNL1        0.0772
     29 C         139.3315  149.0493  154.6294 C.ar    1  UNL1        0.0640
     30 C         139.6691  149.7739  153.3603 C.ar    1  UNL1        0.0175
     31 C         139.3482  151.2326  153.2213 C.ar    1  UNL1        0.0053
     32 C         138.6896  151.9666  154.3515 C.ar    1  UNL1        0.0715
     33 C         138.3519  151.2420  155.6207 C.ar    1  UNL1        0.0053
     34 C         138.6729  149.7833  155.7597 C.ar    1  UNL1        0.0175
     35 C         138.3686  153.4252  154.2125 C.3     1  UNL1        0.4186
     36 F         138.0476  154.8839  154.0736 F       1  UNL1       -0.1659
     37 F         138.0549  153.2178  152.7604 F       1  UNL1       -0.1659
     38 F         138.6822  153.6326  155.6647 F       1  UNL1       -0.1659
@<TRIPOS>BOND
     1     7     8    2
     2     8     9   am
     3     9     1    1
     4     1     2    1
     5     2     3    1
     6     3     4    1
     7     4    23    1
     8    23    24    1
     9    24    25   ar
    10    25    26   ar
    11    26    27   ar
    12    27    29    1
    13    29    30   ar
    14    30    31   ar
    15    31    32   ar
    16    32    35    1
    17    35    36    1
    18    35    37    1
    19    35    38    1
    20    32    33   ar
    21    33    34   ar
    22    27    28   ar
    23     4     5    1
    24     5     6    1
    25     8    10   am
    26    10    11    1
    27    11    12    1
    28    12    15    1
    29    15    16    1
    30    16    17    1
    31    17    18    1
    32    18    19    2
    33    18    20    2
    34    18    21    1
    35    21    22    1
    36    12    13    1
    37     6     1    1
    38    13    10    1
    39    28    24   ar
    40    22    15    1
    41    34    29   ar
    42     9    14    1
@<TRIPOS>MOLECULE
*****
 38 42 0 0 0
SMALL
GASTEIGER

@<TRIPOS>ATOM
      1 C         141.0606  142.9063  160.4425 C.3     1  UNL1        0.0758
      2 C         142.2187  143.5771  159.7652 C.3     1  UNL1        0.0370
      3 C         142.3263  143.5578  158.2692 C.3     1  UNL1        0.0741
      4 N         141.2759  142.8676  157.4506 N.3     1  UNL1       -0.2688
      5 C         140.1178  142.1967  158.1279 C.3     1  UNL1        0.0741
      6 C         140.0102  142.2161  159.6239 C.3     1  UNL1        0.0370
      7 O         142.9535  141.2762  162.1039 O.2     1  UNL1       -0.2526
      8 C         141.8994  142.1106  162.7692 C.2     1  UNL1        0.3040
      9 N         140.9530  142.9256  161.9386 N.am    1  UNL1       -0.2903
     10 N         141.7917  142.1299  164.2653 N.am    1  UNL1       -0.2614
     11 C         142.5323  141.4703  165.3905 C.3     1  UNL1        0.1126
     12 C         141.6394  142.1573  166.3809 C.3     1  UNL1        0.0976
     13 C         140.8989  142.8170  165.2556 C.3     1  UNL1        0.1126
     14 H         140.2611  143.4732  162.3753 H       1  UNL1        0.1509
     15 N         141.5318  142.1767  167.8769 N.3     1  UNL1       -0.2680
     16 C         142.7708  142.2729  168.7168 C.3     1  UNL1        0.0978
     17 C         142.6631  142.2923  170.2129 C.3     1  UNL1        0.1681
     18 S         141.3164  142.2154  170.8690 S.O2    1  UNL1       -0.0072
     19 O         140.2743  142.1661  171.9467 O.2     1  UNL1       -0.1729
     20 O         142.1936  142.2945  172.0832 O.2     1  UNL1       -0.1729
     21 C         140.0773  142.1192  170.0290 C.3     1  UNL1        0.1681
     22 C         140.1850  142.0999  168.5330 C.3     1  UNL1        0.0978
     23 C         141.3835  142.8482  155.9545 C.3     1  UNL1        0.1007
     24 C         141.0419  144.0751  155.1621 C.ar    1  UNL1        0.0129
     25 C         141.0816  144.1989  153.6677 C.ar    1  UNL1        0.0176
     26 C         140.6648  145.5939  153.3069 C.ar    1  UNL1        0.0799
     27 N         140.3675  146.3324  154.5783 N.ar    1  UNL1       -0.3038
     28 C         140.6006  145.3937  155.7248 C.ar    1  UNL1        0.0772
     29 C         139.9164  147.7590  154.6845 C.ar    1  UNL1        0.0640
     30 C         138.9498  148.1620  155.7583 C.ar    1  UNL1        0.0175
     31 C         138.4987  149.5886  155.8645 C.ar    1  UNL1        0.0053
     32 C         139.0142  150.6122  154.8968 C.ar    1  UNL1        0.0715
     33 C         139.9808  150.2092  153.8229 C.ar    1  UNL1        0.0053
     34 C         140.4319  148.7826  153.7168 C.ar    1  UNL1        0.0175
     35 C         138.5631  152.0387  155.0030 C.3     1  UNL1        0.4186
     36 F         138.1120  153.4654  155.1092 F       1  UNL1       -0.1659
     37 F         138.2891  152.0618  153.5284 F       1  UNL1       -0.1659
     38 F         138.8372  152.0157  156.4776 F       1  UNL1       -0.1659
@<TRIPOS>BOND
     1     7     8    2
     2     8     9   am
     3     9     1    1
     4     1     2    1
     5     2     3    1
     6     3     4    1
     7     4    23    1
     8    23    24    1
     9    24    25   ar
    10    25    26   ar
    11    26    27   ar
    12    27    29    1
    13    29    30   ar
    14    30    31   ar
    15    31    32   ar
    16    32    35    1
    17    35    36    1
    18    35    37    1
    19    35    38    1
    20    32    33   ar
    21    33    34   ar
    22    27    28   ar
    23     4     5    1
    24     5     6    1
    25     8    10   am
    26    10    11    1
    27    11    12    1
    28    12    15    1
    29    15    16    1
    30    16    17    1
    31    17    18    1
    32    18    19    2
    33    18    20    2
    34    18    21    1
    35    21    22    1
    36    12    13    1
    37     6     1    1
    38    13    10    1
    39    28    24   ar
    40    22    15    1
    41    34    29   ar
    42     9    14    1
@<TRIPOS>MOLECULE
*****
 38 42 0 0 0
SMALL
GASTEIGER

@<TRIPOS>ATOM
      1 C         141.4044  139.0458  159.2064 C.3     1  UNL1        0.0758
      2 C         140.1009  138.5404  158.6630 C.3     1  UNL1        0.0370
      3 C         140.0596  137.8545  157.3297 C.3     1  UNL1        0.0741
      4 N         141.3219  137.6739  156.5398 N.3     1  UNL1       -0.2688
      5 C         142.6255  138.1792  157.0832 C.3     1  UNL1        0.0741
      6 C         142.6668  138.8652  158.4164 C.3     1  UNL1        0.0370
      7 O         141.5975  137.4236  161.7226 O.2     1  UNL1       -0.2526
      8 C         141.5423  138.9207  161.7978 C.2     1  UNL1        0.3040
      9 N         141.4457  139.7318  160.5397 N.am    1  UNL1       -0.2903
     10 N         141.5836  139.6067  163.1311 N.am    1  UNL1       -0.2614
     11 C         141.6747  139.1495  164.5568 C.3     1  UNL1        0.1126
     12 C         141.6420  140.5769  165.0167 C.3     1  UNL1        0.0976
     13 C         141.5508  141.0341  163.5910 C.3     1  UNL1        0.1126
     14 H         141.4095  140.7144  160.5891 H       1  UNL1        0.1509
     15 N         141.6833  141.2629  166.3500 N.3     1  UNL1       -0.2680
     16 C         140.4054  141.6145  167.0524 C.3     1  UNL1        0.0978
     17 C         140.4467  142.3005  168.3857 C.3     1  UNL1        0.1681
     18 S         141.7659  142.6349  169.0166 S.O2    1  UNL1       -0.0072
     19 O         142.7612  143.1541  170.0113 O.2     1  UNL1       -0.1729
     20 O         140.8337  143.1668  170.0645 O.2     1  UNL1       -0.1729
     21 C         143.0438  142.2833  168.3141 C.3     1  UNL1        0.1681
     22 C         143.0025  141.5973  166.9808 C.3     1  UNL1        0.0978
     23 C         141.2806  136.9879  155.2064 C.3     1  UNL1        0.1007
     24 C         141.7047  135.5541  155.0872 C.ar    1  UNL1        0.0129
     25 C         141.6093  134.7061  153.8536 C.ar    1  UNL1        0.0176
     26 C         142.1442  133.3444  154.1846 C.ar    1  UNL1        0.0799
     27 N         142.5702  133.3507  155.6229 N.ar    1  UNL1       -0.3038
     28 C         142.2986  134.7164  156.1807 C.ar    1  UNL1        0.0772
     29 C         143.1637  132.1945  156.3718 C.ar    1  UNL1        0.0640
     30 C         142.5685  130.8249  156.2311 C.ar    1  UNL1        0.0175
     31 C         143.1619  129.6687  156.9800 C.ar    1  UNL1        0.0053
     32 C         144.3506  129.8820  157.8696 C.ar    1  UNL1        0.0715
     33 C         144.9458  131.2516  158.0104 C.ar    1  UNL1        0.0053
     34 C         144.3524  132.4079  157.2615 C.ar    1  UNL1        0.0175
     35 C         144.9440  128.7257  158.6185 C.3     1  UNL1        0.4186
     36 F         145.5374  127.5694  159.3674 F       1  UNL1       -0.1659
     37 F         146.0347  129.6182  159.1321 F       1  UNL1       -0.1659
     38 F         143.8532  127.8332  158.1049 F       1  UNL1       -0.1659
@<TRIPOS>BOND
     1     7     8    2
     2     8     9   am
     3     9     1    1
     4     1     2    1
     5     2     3    1
     6     3     4    1
     7     4    23    1
     8    23    24    1
     9    24    25   ar
    10    25    26   ar
    11    26    27   ar
    12    27    29    1
    13    29    30   ar
    14    30    31   ar
    15    31    32   ar
    16    32    35    1
    17    35    36    1
    18    35    37    1
    19    35    38    1
    20    32    33   ar
    21    33    34   ar
    22    27    28   ar
    23     4     5    1
    24     5     6    1
    25     8    10   am
    26    10    11    1
    27    11    12    1
    28    12    15    1
    29    15    16    1
    30    16    17    1
    31    17    18    1
    32    18    19    2
    33    18    20    2
    34    18    21    1
    35    21    22    1
    36    12    13    1
    37     6     1    1
    38    13    10    1
    39    28    24   ar
    40    22    15    1
    41    34    29   ar
    42     9    14    1
@<TRIPOS>MOLECULE
*****
 38 42 0 0 0
SMALL
GASTEIGER

@<TRIPOS>ATOM
      1 C         140.4563  138.8704  157.7511 C.3     1  UNL1        0.0758
      2 C         140.9474  140.1714  157.1889 C.3     1  UNL1        0.0370
      3 C         140.5887  141.4626  157.8627 C.3     1  UNL1        0.0741
      4 N         139.7390  141.4528  159.0988 N.3     1  UNL1       -0.2688
      5 C         139.2480  140.1518  159.6611 C.3     1  UNL1        0.0741
      6 C         139.6066  138.8606  158.9872 C.3     1  UNL1        0.0370
      7 O         143.1760  137.6711  158.1574 O.2     1  UNL1       -0.2526
      8 C         142.1747  136.9795  157.2804 C.2     1  UNL1        0.3040
      9 N         140.8149  137.5791  157.0773 N.am    1  UNL1       -0.2903
     10 N         142.5333  135.6882  156.6065 N.am    1  UNL1       -0.2614
     11 C         143.7507  134.8127  156.5710 C.3     1  UNL1        0.1126
     12 C         143.0404  133.8621  155.6536 C.3     1  UNL1        0.0976
     13 C         141.8229  134.7376  155.6891 C.3     1  UNL1        0.1126
     14 H         140.1577  137.1251  156.5017 H       1  UNL1        0.1509
     15 N         143.3990  132.5708  154.9797 N.3     1  UNL1       -0.2680
     16 C         144.2923  131.5857  155.6735 C.3     1  UNL1        0.0978
     17 C         144.6509  130.2944  154.9996 C.3     1  UNL1        0.1681
     18 S         144.1161  129.9883  153.6320 S.O2    1  UNL1       -0.0072
     19 O         143.8608  129.2512  152.3509 O.2     1  UNL1       -0.1729
     20 O         144.9208  128.7471  153.8809 O.2     1  UNL1       -0.1729
     21 C         143.2227  130.9735  152.9383 C.3     1  UNL1        0.1681
     22 C         142.8641  132.2647  153.6121 C.3     1  UNL1        0.0978
     23 C         139.3804  142.7441  159.7727 C.3     1  UNL1        0.1007
     24 C         139.3064  142.8139  161.2692 C.ar    1  UNL1        0.0129
     25 C         138.0978  143.1862  162.0758 C.ar    1  UNL1        0.0176
     26 C         138.4725  143.1260  163.5270 C.ar    1  UNL1        0.0799
     27 N         139.9127  142.7164  163.6173 N.ar    1  UNL1       -0.3038
     28 C         140.4281  142.5235  162.2219 C.ar    1  UNL1        0.0772
     29 C         140.6993  142.5321  164.8811 C.ar    1  UNL1        0.0640
     30 C         139.9892  142.4290  166.1983 C.ar    1  UNL1        0.0175
     31 C         140.7758  142.2447  167.4620 C.ar    1  UNL1        0.0053
     32 C         142.2726  142.1636  167.4087 C.ar    1  UNL1        0.0715
     33 C         142.9828  142.2667  166.0915 C.ar    1  UNL1        0.0053
     34 C         142.1962  142.4510  164.8277 C.ar    1  UNL1        0.0175
     35 C         143.0593  141.9793  168.6725 C.3     1  UNL1        0.4186
     36 F         143.8459  141.7949  169.9364 F       1  UNL1       -0.1659
     37 F         144.1192  142.9015  168.1472 F       1  UNL1       -0.1659
     38 F         141.9992  141.0571  169.1979 F       1  UNL1       -0.1659
@<TRIPOS>BOND
     1     7     8    2
     2     8     9   am
     3     9     1    1
     4     1     2    1
     5     2     3    1
     6     3     4    1
     7     4    23    1
     8    23    24    1
     9    24    25   ar
    10    25    26   ar
    11    26    27   ar
    12    27    29    1
    13    29    30   ar
    14    30    31   ar
    15    31    32   ar
    16    32    35    1
    17    35    36    1
    18    35    37    1
    19    35    38    1
    20    32    33   ar
    21    33    34   ar
    22    27    28   ar
    23     4     5    1
    24     5     6    1
    25     8    10   am
    26    10    11    1
    27    11    12    1
    28    12    15    1
    29    15    16    1
    30    16    17    1
    31    17    18    1
    32    18    19    2
    33    18    20    2
    34    18    21    1
    35    21    22    1
    36    12    13    1
    37     6     1    1
    38    13    10    1
    39    28    24   ar
    40    22    15    1
    41    34    29   ar
    42     9    14    1
@<TRIPOS>MOLECULE
*****
 38 42 0 0 0
SMALL
GASTEIGER

@<TRIPOS>ATOM
      1 C         136.4275  142.7240  155.3485 C.3     1  UNL1        0.0758
      2 C         136.8094  142.9873  153.9221 C.3     1  UNL1        0.0370
      3 C         138.1345  143.6139  153.6039 C.3     1  UNL1        0.0741
      4 N         139.0778  143.9772  154.7122 N.3     1  UNL1       -0.2688
      5 C         138.6959  143.7138  156.1387 C.3     1  UNL1        0.0741
      6 C         137.3707  143.0872  156.4568 C.3     1  UNL1        0.0370
      7 O         136.2693  139.8008  156.0045 O.2     1  UNL1       -0.2526
      8 C         135.0232  140.6358  155.9947 C.2     1  UNL1        0.3040
      9 N         135.1023  142.0973  155.6667 N.am    1  UNL1       -0.2903
     10 N         133.6979  140.0091  156.3129 N.am    1  UNL1       -0.2614
     11 C         133.2373  138.6286  156.6758 C.3     1  UNL1        0.1126
     12 C         131.8238  139.1230  156.7629 C.3     1  UNL1        0.0976
     13 C         132.2845  140.5037  156.4000 C.3     1  UNL1        0.1126
     14 H         134.2844  142.6453  155.6602 H       1  UNL1        0.1509
     15 N         130.4987  138.4965  157.0810 N.3     1  UNL1       -0.2680
     16 C         130.0714  138.3300  158.5092 C.3     1  UNL1        0.0978
     17 C         128.7462  137.7034  158.8274 C.3     1  UNL1        0.1681
     18 S         127.8482  137.2433  157.7175 S.O2    1  UNL1       -0.0072
     19 O         126.6585  136.6544  157.0193 O.2     1  UNL1       -0.1729
     20 O         127.0078  136.8723  158.9032 O.2     1  UNL1       -0.1729
     21 C         128.2755  137.4098  156.2892 C.3     1  UNL1        0.1681
     22 C         129.6007  138.0364  155.9711 C.3     1  UNL1        0.0978
     23 C         140.4030  144.6038  154.3940 C.3     1  UNL1        0.1007
     24 C         140.4645  146.0201  153.9037 C.ar    1  UNL1        0.0129
     25 C         141.2792  146.5179  152.7467 C.ar    1  UNL1        0.0176
     26 C         141.0404  147.9926  152.6122 C.ar    1  UNL1        0.0799
     27 N         140.0781  148.4063  153.6860 N.ar    1  UNL1       -0.3038
     28 C         139.7223  147.1871  154.4842 C.ar    1  UNL1        0.0772
     29 C         139.5623  149.7951  153.9205 C.ar    1  UNL1        0.0640
     30 C         138.9675  150.1601  155.2482 C.ar    1  UNL1        0.0175
     31 C         138.4517  151.5490  155.4826 C.ar    1  UNL1        0.0053
     32 C         138.5307  152.5729  154.3893 C.ar    1  UNL1        0.0715
     33 C         139.1255  152.2079  153.0616 C.ar    1  UNL1        0.0053
     34 C         139.6413  150.8191  152.8271 C.ar    1  UNL1        0.0175
     35 C         138.0149  153.9617  154.6238 C.3     1  UNL1        0.4186
     36 F         137.4991  155.3506  154.8583 F       1  UNL1       -0.1659
     37 F         137.5792  154.0418  153.1907 F       1  UNL1       -0.1659
     38 F         138.4507  153.8817  156.0569 F       1  UNL1       -0.1659
@<TRIPOS>BOND
     1     7     8    2
     2     8     9   am
     3     9     1    1
     4     1     2    1
     5     2     3    1
     6     3     4    1
     7     4    23    1
     8    23    24    1
     9    24    25   ar
    10    25    26   ar
    11    26    27   ar
    12    27    29    1
    13    29    30   ar
    14    30    31   ar
    15    31    32   ar
    16    32    35    1
    17    35    36    1
    18    35    37    1
    19    35    38    1
    20    32    33   ar
    21    33    34   ar
    22    27    28   ar
    23     4     5    1
    24     5     6    1
    25     8    10   am
    26    10    11    1
    27    11    12    1
    28    12    15    1
    29    15    16    1
    30    16    17    1
    31    17    18    1
    32    18    19    2
    33    18    20    2
    34    18    21    1
    35    21    22    1
    36    12    13    1
    37     6     1    1
    38    13    10    1
    39    28    24   ar
    40    22    15    1
    41    34    29   ar
    42     9    14    1
@<TRIPOS>MOLECULE
*****
 38 42 0 0 0
SMALL
GASTEIGER

@<TRIPOS>ATOM
      1 C         141.8569  140.9777  160.3527 C.3     1  UNL1        0.0758
      2 C         140.7582  140.4695  159.4669 C.3     1  UNL1        0.0370
      3 C         141.0253  140.2117  158.0136 C.3     1  UNL1        0.0741
      4 N         142.3910  140.4621  157.4461 N.3     1  UNL1       -0.2688
      5 C         143.4897  140.9704  158.3319 C.3     1  UNL1        0.0741
      6 C         143.2226  141.2281  159.7852 C.3     1  UNL1        0.0370
      7 O         142.6257  138.9295  162.4055 O.2     1  UNL1       -0.2526
      8 C         141.9742  140.2114  162.8325 C.2     1  UNL1        0.3040
      9 N         141.5898  141.2355  161.8061 N.am    1  UNL1       -0.2903
     10 N         141.7072  140.4692  164.2859 N.am    1  UNL1       -0.2614
     11 C         141.9413  139.7101  165.5582 C.3     1  UNL1        0.1126
     12 C         141.3295  140.8339  166.3412 C.3     1  UNL1        0.0976
     13 C         141.0954  141.5929  165.0688 C.3     1  UNL1        0.1126
     14 H         141.1622  142.0768  162.0864 H       1  UNL1        0.1509
     15 N         141.0625  141.0917  167.7945 N.3     1  UNL1       -0.2680
     16 C         140.5935  142.4442  168.2424 C.3     1  UNL1        0.0978
     17 C         140.3264  142.7021  169.6958 C.3     1  UNL1        0.1681
     18 S         140.5283  141.6074  170.7012 S.O2    1  UNL1       -0.0072
     19 O         140.5727  140.8967  172.0214 O.2     1  UNL1       -0.1729
     20 O         140.0748  142.7132  171.6076 O.2     1  UNL1       -0.1729
     21 C         140.9973  140.2548  170.2532 C.3     1  UNL1        0.1681
     22 C         141.2644  139.9970  168.7999 C.3     1  UNL1        0.0978
     23 C         142.6581  140.2043  155.9927 C.3     1  UNL1        0.1007
     24 C         142.5670  138.8092  155.4493 C.ar    1  UNL1        0.0129
     25 C         142.2793  138.4345  154.0257 C.ar    1  UNL1        0.0176
     26 C         142.2821  136.9376  153.9307 C.ar    1  UNL1        0.0799
     27 N         142.5715  136.3870  155.2957 N.ar    1  UNL1       -0.3038
     28 C         142.7476  137.5438  156.2343 C.ar    1  UNL1        0.0772
     29 C         142.6679  134.9347  155.6584 C.ar    1  UNL1        0.0640
     30 C         141.5917  133.9817  155.2302 C.ar    1  UNL1        0.0175
     31 C         141.6881  132.5294  155.5930 C.ar    1  UNL1        0.0053
     32 C         142.8607  132.0302  156.3839 C.ar    1  UNL1        0.0715
     33 C         143.9370  132.9832  156.8121 C.ar    1  UNL1        0.0053
     34 C         143.8406  134.4355  156.4494 C.ar    1  UNL1        0.0175
     35 C         142.9571  130.5779  156.7466 C.3     1  UNL1        0.4186
     36 F         143.0535  129.1256  157.1094 F       1  UNL1       -0.1659
     37 F         141.9333  130.2488  155.7009 F       1  UNL1       -0.1659
     38 F         143.9809  130.9070  157.7924 F       1  UNL1       -0.1659
@<TRIPOS>BOND
     1     7     8    2
     2     8     9   am
     3     9     1    1
     4     1     2    1
     5     2     3    1
     6     3     4    1
     7     4    23    1
     8    23    24    1
     9    24    25   ar
    10    25    26   ar
    11    26    27   ar
    12    27    29    1
    13    29    30   ar
    14    30    31   ar
    15    31    32   ar
    16    32    35    1
    17    35    36    1
    18    35    37    1
    19    35    38    1
    20    32    33   ar
    21    33    34   ar
    22    27    28   ar
    23     4     5    1
    24     5     6    1
    25     8    10   am
    26    10    11    1
    27    11    12    1
    28    12    15    1
    29    15    16    1
    30    16    17    1
    31    17    18    1
    32    18    19    2
    33    18    20    2
    34    18    21    1
    35    21    22    1
    36    12    13    1
    37     6     1    1
    38    13    10    1
    39    28    24   ar
    40    22    15    1
    41    34    29   ar
    42     9    14    1
