@<TRIPOS>MOLECULE
*****
 30 33 0 0 0
SMALL
GASTEIGER

@<TRIPOS>ATOM
      1 C         139.0887  144.6560  164.8985 C.3     1  UNL1        0.0282
      2 C         139.6521  144.0600  163.6424 C.3     1  UNL1        0.1189
      3 C         139.6901  144.8690  162.3799 C.ar    1  UNL1        0.1138
      4 N         139.2485  146.2688  162.0711 N.ar    1  UNL1       -0.1315
      5 N         139.5389  146.5380  160.6243 N.ar    1  UNL1       -0.0576
      6 N         140.1600  145.3045  160.0389 N.ar    1  UNL1       -0.1813
      7 C         140.2534  144.2729  161.1239 C.ar    1  UNL1        0.0837
      8 C         140.7787  142.8679  161.1305 C.3     1  UNL1        0.0688
      9 C         140.7407  142.0590  162.3931 C.3     1  UNL1        0.1004
     10 N         140.1774  142.6549  163.6490 N.am    1  UNL1       -0.2719
     11 C         140.1393  141.8459  164.9116 C.2     1  UNL1        0.2501
     12 O         139.5760  142.4419  166.1676 O.2     1  UNL1       -0.2699
     13 C         140.6088  145.1326  158.6180 C.ar    1  UNL1        0.2543
     14 N         139.7903  144.3105  157.6672 N.ar    1  UNL1       -0.2060
     15 C         140.2391  144.1387  156.2461 C.ar    1  UNL1        0.1332
     16 C         141.5063  144.7890  155.7761 C.ar    1  UNL1        0.1784
     17 F         141.9551  144.6172  154.3552 F       1  UNL1       -0.2009
     18 C         142.3249  145.6111  156.7270 C.ar    1  UNL1        0.1332
     19 N         141.8761  145.7830  158.1479 N.ar    1  UNL1       -0.2060
     20 C         140.6646  140.4409  164.9183 C.ar    1  UNL1        0.0641
     21 C         139.7629  139.3014  164.5462 C.ar    1  UNL1        0.0054
     22 C         140.2883  137.8963  164.5528 C.ar    1  UNL1        0.0001
     23 C         141.7151  137.6309  164.9315 C.ar    1  UNL1        0.0047
     24 C         142.6168  138.7705  165.3036 C.ar    1  UNL1        0.0821
     25 C         142.0916  140.1755  165.2970 C.ar    1  UNL1        0.0659
     26 CL        142.9932  141.3151  165.6691 Cl      1  UNL1       -0.0822
     27 C         144.0437  138.5051  165.6823 C.3     1  UNL1        0.4194
     28 F         145.4707  138.2396  166.0610 F       1  UNL1       -0.1658
     29 F         143.6082  138.1470  167.0723 F       1  UNL1       -0.1658
     30 F         144.4793  138.8632  164.2923 F       1  UNL1       -0.1658
@<TRIPOS>BOND
     1     2     1    1
     2     2     3    1
     3     3     4   ar
     4     4     5   ar
     5     5     6   ar
     6     6    13    1
     7    13    14   ar
     8    14    15   ar
     9    15    16   ar
    10    16    17    1
    11    16    18   ar
    12    18    19   ar
    13     6     7   ar
    14     7     8    1
    15     8     9    1
    16     9    10    1
    17    10    11   am
    18    11    12    2
    19    11    20    1
    20    20    21   ar
    21    21    22   ar
    22    22    23   ar
    23    23    24   ar
    24    24    27    1
    25    27    28    1
    26    27    29    1
    27    27    30    1
    28    24    25   ar
    29    25    26    1
    30    10     2    1
    31    25    20   ar
    32     7     3   ar
    33    19    13   ar
@<TRIPOS>MOLECULE
*****
 30 33 0 0 0
SMALL
GASTEIGER

@<TRIPOS>ATOM
      1 C         139.5941  145.6074  162.6678 C.3     1  UNL1        0.0282
      2 C         140.2547  144.3491  162.1877 C.3     1  UNL1        0.1189
      3 C         141.0601  144.3606  160.9223 C.ar    1  UNL1        0.1138
      4 N         141.3778  145.4529  159.9447 N.ar    1  UNL1       -0.1315
      5 N         142.2347  144.8697  158.8604 N.ar    1  UNL1       -0.0576
      6 N         142.4466  143.4170  159.1679 N.ar    1  UNL1       -0.1813
      7 C         141.7207  143.1023  160.4423 C.ar    1  UNL1        0.0837
      8 C         141.5757  141.8325  161.2276 C.3     1  UNL1        0.0688
      9 C         140.7703  141.8211  162.4929 C.3     1  UNL1        0.1004
     10 N         140.1098  143.0792  162.9730 N.am    1  UNL1       -0.2719
     11 C         139.3043  143.0678  164.2384 C.2     1  UNL1        0.2501
     12 O         138.6438  144.3261  164.7185 O.2     1  UNL1       -0.2699
     13 C         143.2443  142.4489  158.3455 C.ar    1  UNL1        0.2543
     14 N         142.6021  141.1949  157.8308 N.ar    1  UNL1       -0.2060
     15 C         143.3998  140.2268  157.0083 C.ar    1  UNL1        0.1332
     16 C         144.8397  140.5127  156.7006 C.ar    1  UNL1        0.1784
     17 F         145.6375  139.5446  155.8781 F       1  UNL1       -0.2009
     18 C         145.4820  141.7668  157.2153 C.ar    1  UNL1        0.1332
     19 N         144.6843  142.7348  158.0378 N.ar    1  UNL1       -0.2060
     20 C         139.1594  141.7980  165.0237 C.ar    1  UNL1        0.0641
     21 C         138.2356  140.7192  164.5414 C.ar    1  UNL1        0.0054
     22 C         138.0907  139.4494  165.3268 C.ar    1  UNL1        0.0001
     23 C         138.8696  139.2585  166.5943 C.ar    1  UNL1        0.0047
     24 C         139.7935  140.3374  167.0766 C.ar    1  UNL1        0.0821
     25 C         139.9385  141.6072  166.2913 C.ar    1  UNL1        0.0659
     26 CL        140.8623  142.6860  166.7736 Cl      1  UNL1       -0.0822
     27 C         140.5725  140.1465  168.3442 C.3     1  UNL1        0.4194
     28 F         141.3515  139.9555  169.6118 F       1  UNL1       -0.1658
     29 F         139.4329  140.7225  169.1313 F       1  UNL1       -0.1658
     30 F         141.7121  139.5705  167.5571 F       1  UNL1       -0.1658
@<TRIPOS>BOND
     1     2     1    1
     2     2     3    1
     3     3     4   ar
     4     4     5   ar
     5     5     6   ar
     6     6    13    1
     7    13    14   ar
     8    14    15   ar
     9    15    16   ar
    10    16    17    1
    11    16    18   ar
    12    18    19   ar
    13     6     7   ar
    14     7     8    1
    15     8     9    1
    16     9    10    1
    17    10    11   am
    18    11    12    2
    19    11    20    1
    20    20    21   ar
    21    21    22   ar
    22    22    23   ar
    23    23    24   ar
    24    24    27    1
    25    27    28    1
    26    27    29    1
    27    27    30    1
    28    24    25   ar
    29    25    26    1
    30    10     2    1
    31    25    20   ar
    32     7     3   ar
    33    19    13   ar
@<TRIPOS>MOLECULE
*****
 30 33 0 0 0
SMALL
GASTEIGER

@<TRIPOS>ATOM
      1 C         140.0788  145.7002  162.6089 C.3     1  UNL1        0.0282
      2 C         140.8380  144.4804  162.1778 C.3     1  UNL1        0.1189
      3 C         141.4407  144.4181  160.8057 C.ar    1  UNL1        0.1138
      4 N         141.4510  145.3963  159.6686 N.ar    1  UNL1       -0.1315
      5 N         142.2166  144.7811  158.5349 N.ar    1  UNL1       -0.0576
      6 N         142.6794  143.4226  158.9712 N.ar    1  UNL1       -0.1813
      7 C         142.1998  143.1982  160.3747 C.ar    1  UNL1        0.0837
      8 C         142.3564  142.0408  161.3159 C.3     1  UNL1        0.0688
      9 C         141.7537  142.1032  162.6880 C.3     1  UNL1        0.1004
     10 N         140.9946  143.3229  163.1190 N.am    1  UNL1       -0.2719
     11 C         140.3919  143.3853  164.4913 C.2     1  UNL1        0.2501
     12 O         139.6327  144.6051  164.9223 O.2     1  UNL1       -0.2699
     13 C         143.4810  142.4579  158.1485 C.ar    1  UNL1        0.2543
     14 N         142.8450  141.1993  157.6374 N.ar    1  UNL1       -0.2060
     15 C         143.6466  140.2345  156.8147 C.ar    1  UNL1        0.1332
     16 C         145.0841  140.5284  156.5032 C.ar    1  UNL1        0.1784
     17 F         145.8857  139.5638  155.6805 F       1  UNL1       -0.2009
     18 C         145.7201  141.7872  157.0144 C.ar    1  UNL1        0.1332
     19 N         144.9186  142.7519  157.8370 N.ar    1  UNL1       -0.2060
     20 C         140.5484  142.2279  165.4325 C.ar    1  UNL1        0.0641
     21 C         141.8065  142.0792  166.2357 C.ar    1  UNL1        0.0054
     22 C         141.9629  140.9217  167.1769 C.ar    1  UNL1        0.0001
     23 C         140.8614  139.9130  167.3149 C.ar    1  UNL1        0.0047
     24 C         139.6033  140.0617  166.5116 C.ar    1  UNL1        0.0821
     25 C         139.4468  141.2192  165.5704 C.ar    1  UNL1        0.0659
     26 CL        138.1887  141.3678  164.7672 Cl      1  UNL1       -0.0822
     27 C         138.5018  139.0530  166.6496 C.3     1  UNL1        0.4194
     28 F         137.4002  138.0442  166.7876 F       1  UNL1       -0.1658
     29 F         138.2108  139.5597  168.0311 F       1  UNL1       -0.1658
     30 F         138.7927  138.5463  165.2681 F       1  UNL1       -0.1658
@<TRIPOS>BOND
     1     2     1    1
     2     2     3    1
     3     3     4   ar
     4     4     5   ar
     5     5     6   ar
     6     6    13    1
     7    13    14   ar
     8    14    15   ar
     9    15    16   ar
    10    16    17    1
    11    16    18   ar
    12    18    19   ar
    13     6     7   ar
    14     7     8    1
    15     8     9    1
    16     9    10    1
    17    10    11   am
    18    11    12    2
    19    11    20    1
    20    20    21   ar
    21    21    22   ar
    22    22    23   ar
    23    23    24   ar
    24    24    27    1
    25    27    28    1
    26    27    29    1
    27    27    30    1
    28    24    25   ar
    29    25    26    1
    30    10     2    1
    31    25    20   ar
    32     7     3   ar
    33    19    13   ar
@<TRIPOS>MOLECULE
*****
 30 33 0 0 0
SMALL
GASTEIGER

@<TRIPOS>ATOM
      1 C         137.9998  137.9942  162.1048 C.3     1  UNL1        0.0282
      2 C         138.9594  139.1421  161.9973 C.3     1  UNL1        0.1189
      3 C         138.9450  140.0205  160.7815 C.ar    1  UNL1        0.1138
      4 N         138.1057  140.0001  159.5384 N.ar    1  UNL1       -0.1315
      5 N         138.5466  141.1353  158.6628 N.ar    1  UNL1       -0.0576
      6 N         139.6584  141.8573  159.3646 N.ar    1  UNL1       -0.1813
      7 C         139.9046  141.1683  160.6741 C.ar    1  UNL1        0.0837
      8 C         140.8787  141.4378  161.7825 C.3     1  UNL1        0.0688
      9 C         140.8931  140.5594  162.9983 C.3     1  UNL1        0.1004
     10 N         139.9335  139.4117  163.1057 N.am    1  UNL1       -0.2719
     11 C         139.9479  138.5333  164.3216 C.2     1  UNL1        0.2501
     12 O         138.9883  137.3854  164.4290 O.2     1  UNL1       -0.2699
     13 C         140.3947  143.0576  158.8477 C.ar    1  UNL1        0.2543
     14 N         139.7324  144.4035  158.8532 N.ar    1  UNL1       -0.2060
     15 C         140.4687  145.6039  158.3363 C.ar    1  UNL1        0.1332
     16 C         141.8672  145.4583  157.8140 C.ar    1  UNL1        0.1784
     17 F         142.6035  146.6586  157.2971 F       1  UNL1       -0.2009
     18 C         142.5295  144.1124  157.8086 C.ar    1  UNL1        0.1332
     19 N         141.7933  142.9121  158.3254 N.ar    1  UNL1       -0.2060
     20 C         140.9219  138.8027  165.4301 C.ar    1  UNL1        0.0641
     21 C         142.3065  138.2292  165.3677 C.ar    1  UNL1        0.0054
     22 C         143.2806  138.4987  166.4762 C.ar    1  UNL1        0.0001
     23 C         142.8700  139.3417  167.6469 C.ar    1  UNL1        0.0047
     24 C         141.4853  139.9153  167.7092 C.ar    1  UNL1        0.0821
     25 C         140.5113  139.6458  166.6008 C.ar    1  UNL1        0.0659
     26 CL        139.1267  140.2194  166.6632 Cl      1  UNL1       -0.0822
     27 C         141.0748  140.7584  168.8800 C.3     1  UNL1        0.4194
     28 F         140.6642  141.6014  170.0508 F       1  UNL1       -0.1658
     29 F         140.7130  139.5198  169.6450 F       1  UNL1       -0.1658
     30 F         141.4365  141.9969  168.1150 F       1  UNL1       -0.1658
@<TRIPOS>BOND
     1     2     1    1
     2     2     3    1
     3     3     4   ar
     4     4     5   ar
     5     5     6   ar
     6     6    13    1
     7    13    14   ar
     8    14    15   ar
     9    15    16   ar
    10    16    17    1
    11    16    18   ar
    12    18    19   ar
    13     6     7   ar
    14     7     8    1
    15     8     9    1
    16     9    10    1
    17    10    11   am
    18    11    12    2
    19    11    20    1
    20    20    21   ar
    21    21    22   ar
    22    22    23   ar
    23    23    24   ar
    24    24    27    1
    25    27    28    1
    26    27    29    1
    27    27    30    1
    28    24    25   ar
    29    25    26    1
    30    10     2    1
    31    25    20   ar
    32     7     3   ar
    33    19    13   ar
@<TRIPOS>MOLECULE
*****
 30 33 0 0 0
SMALL
GASTEIGER

@<TRIPOS>ATOM
      1 C         143.7248  137.7672  160.9300 C.3     1  UNL1        0.0282
      2 C         142.3649  138.0887  160.3846 C.3     1  UNL1        0.1189
      3 C         142.1178  138.0349  158.9061 C.ar    1  UNL1        0.1138
      4 N         143.0134  137.7001  157.7504 N.ar    1  UNL1       -0.1315
      5 N         142.2070  137.8146  156.4908 N.ar    1  UNL1       -0.0576
      6 N         140.8130  138.2202  156.8680 N.ar    1  UNL1       -0.1813
      7 C         140.7579  138.3564  158.3608 C.ar    1  UNL1        0.0837
      8 C         139.6451  138.7316  159.2940 C.3     1  UNL1        0.0688
      9 C         139.8922  138.7853  160.7725 C.3     1  UNL1        0.1004
     10 N         141.2520  138.4639  161.3178 N.am    1  UNL1       -0.2719
     11 C         141.4991  138.5176  162.7964 C.2     1  UNL1        0.2501
     12 O         142.8590  138.1962  163.3417 O.2     1  UNL1       -0.2699
     13 C         139.6742  138.4494  155.9191 C.ar    1  UNL1        0.2543
     14 N         139.4176  139.8227  155.3733 N.ar    1  UNL1       -0.2060
     15 C         138.2787  140.0520  154.4243 C.ar    1  UNL1        0.1332
     16 C         137.3965  138.9078  154.0212 C.ar    1  UNL1        0.1784
     17 F         136.2576  139.1370  153.0722 F       1  UNL1       -0.2009
     18 C         137.6532  137.5344  154.5671 C.ar    1  UNL1        0.1332
     19 N         138.7919  137.3052  155.5160 N.ar    1  UNL1       -0.2060
     20 C         140.3863  138.8928  163.7297 C.ar    1  UNL1        0.0641
     21 C         139.7103  137.8372  164.5534 C.ar    1  UNL1        0.0054
     22 C         138.5975  138.2124  165.4867 C.ar    1  UNL1        0.0001
     23 C         138.1607  139.6432  165.5961 C.ar    1  UNL1        0.0047
     24 C         138.8368  140.6989  164.7722 C.ar    1  UNL1        0.0821
     25 C         139.9496  140.3237  163.8390 C.ar    1  UNL1        0.0659
     26 CL        140.6255  141.3793  163.0152 Cl      1  UNL1       -0.0822
     27 C         138.3999  142.1297  164.8817 C.3     1  UNL1        0.4194
     28 F         137.9631  143.5605  164.9911 F       1  UNL1       -0.1658
     29 F         139.4791  142.3818  165.8926 F       1  UNL1       -0.1658
     30 F         137.3208  141.8775  163.8707 F       1  UNL1       -0.1658
@<TRIPOS>BOND
     1     2     1    1
     2     2     3    1
     3     3     4   ar
     4     4     5   ar
     5     5     6   ar
     6     6    13    1
     7    13    14   ar
     8    14    15   ar
     9    15    16   ar
    10    16    17    1
    11    16    18   ar
    12    18    19   ar
    13     6     7   ar
    14     7     8    1
    15     8     9    1
    16     9    10    1
    17    10    11   am
    18    11    12    2
    19    11    20    1
    20    20    21   ar
    21    21    22   ar
    22    22    23   ar
    23    23    24   ar
    24    24    27    1
    25    27    28    1
    26    27    29    1
    27    27    30    1
    28    24    25   ar
    29    25    26    1
    30    10     2    1
    31    25    20   ar
    32     7     3   ar
    33    19    13   ar
@<TRIPOS>MOLECULE
*****
 30 33 0 0 0
SMALL
GASTEIGER

@<TRIPOS>ATOM
      1 C         143.4910  145.1200  163.1066 C.3     1  UNL1        0.0282
      2 C         142.6127  144.0098  162.6104 C.3     1  UNL1        0.1189
      3 C         141.7934  144.1995  161.3684 C.ar    1  UNL1        0.1138
      4 N         141.6473  145.3607  160.4301 N.ar    1  UNL1       -0.1315
      5 N         140.6788  144.9680  159.3541 N.ar    1  UNL1       -0.0576
      6 N         140.2263  143.5643  159.6274 N.ar    1  UNL1       -0.1813
      7 C         140.9152  143.0893  160.8723 C.ar    1  UNL1        0.0837
      8 C         140.8563  141.7893  161.6183 C.3     1  UNL1        0.0688
      9 C         141.6756  141.5995  162.8603 C.3     1  UNL1        0.1004
     10 N         142.5538  142.7097  163.3564 N.am    1  UNL1       -0.2719
     11 C         143.3731  142.5199  164.5985 C.2     1  UNL1        0.2501
     12 O         144.2513  143.6301  165.0946 O.2     1  UNL1       -0.2699
     13 C         139.2554  142.7742  158.8009 C.ar    1  UNL1        0.2543
     14 N         138.7485  141.4530  159.2982 N.ar    1  UNL1       -0.2060
     15 C         137.7775  140.6628  158.4717 C.ar    1  UNL1        0.1332
     16 C         137.3136  141.1940  157.1479 C.ar    1  UNL1        0.1784
     17 F         136.3427  140.4039  156.3214 F       1  UNL1       -0.2009
     18 C         137.8205  142.5153  156.6506 C.ar    1  UNL1        0.1332
     19 N         138.7914  143.3054  157.4770 N.ar    1  UNL1       -0.2060
     20 C         143.3142  141.2199  165.3445 C.ar    1  UNL1        0.0641
     21 C         144.0230  140.0130  164.8052 C.ar    1  UNL1        0.0054
     22 C         143.9641  138.7129  165.5513 C.ar    1  UNL1        0.0001
     23 C         143.1964  138.6199  166.8364 C.ar    1  UNL1        0.0047
     24 C         142.4875  139.8269  167.3757 C.ar    1  UNL1        0.0821
     25 C         142.5464  141.1269  166.6298 C.ar    1  UNL1        0.0659
     26 CL        141.8376  142.3338  167.1691 Cl      1  UNL1       -0.0822
     27 C         141.7197  139.7338  168.6610 C.3     1  UNL1        0.4194
     28 F         140.9520  139.6407  169.9463 F       1  UNL1       -0.1658
     29 F         140.4444  139.5740  167.8876 F       1  UNL1       -0.1658
     30 F         142.9950  139.8935  169.4344 F       1  UNL1       -0.1658
@<TRIPOS>BOND
     1     2     1    1
     2     2     3    1
     3     3     4   ar
     4     4     5   ar
     5     5     6   ar
     6     6    13    1
     7    13    14   ar
     8    14    15   ar
     9    15    16   ar
    10    16    17    1
    11    16    18   ar
    12    18    19   ar
    13     6     7   ar
    14     7     8    1
    15     8     9    1
    16     9    10    1
    17    10    11   am
    18    11    12    2
    19    11    20    1
    20    20    21   ar
    21    21    22   ar
    22    22    23   ar
    23    23    24   ar
    24    24    27    1
    25    27    28    1
    26    27    29    1
    27    27    30    1
    28    24    25   ar
    29    25    26    1
    30    10     2    1
    31    25    20   ar
    32     7     3   ar
    33    19    13   ar
@<TRIPOS>MOLECULE
*****
 30 33 0 0 0
SMALL
GASTEIGER

@<TRIPOS>ATOM
      1 C         143.6207  141.6483  159.3921 C.3     1  UNL1        0.0282
      2 C         143.2690  140.1951  159.5133 C.3     1  UNL1        0.1189
      3 C         143.2501  139.3236  158.2926 C.ar    1  UNL1        0.1138
      4 N         143.5310  139.6135  156.8480 N.ar    1  UNL1       -0.1315
      5 N         143.3530  138.3395  156.0765 N.ar    1  UNL1       -0.0576
      6 N         142.9620  137.2623  157.0443 N.ar    1  UNL1       -0.1813
      7 C         142.8984  137.8705  158.4140 C.ar    1  UNL1        0.0837
      8 C         142.5656  137.2889  159.7560 C.3     1  UNL1        0.0688
      9 C         142.5846  138.1604  160.9766 C.3     1  UNL1        0.1004
     10 N         142.9363  139.6134  160.8554 N.am    1  UNL1       -0.2719
     11 C         142.9552  140.4850  162.0761 C.2     1  UNL1        0.2501
     12 O         143.3069  141.9381  161.9548 O.2     1  UNL1       -0.2699
     13 C         142.6835  135.8286  156.7024 C.ar    1  UNL1        0.2543
     14 N         143.4425  134.7326  157.3899 N.ar    1  UNL1       -0.2060
     15 C         143.1640  133.2988  157.0480 C.ar    1  UNL1        0.1332
     16 C         142.1266  132.9611  156.0187 C.ar    1  UNL1        0.1784
     17 F         141.8481  131.5274  155.6768 F       1  UNL1       -0.2009
     18 C         141.3676  134.0572  155.3312 C.ar    1  UNL1        0.1332
     19 N         141.6460  135.4909  155.6730 N.ar    1  UNL1       -0.2060
     20 C         142.6225  139.9034  163.4181 C.ar    1  UNL1        0.0641
     21 C         143.7194  139.4110  164.3150 C.ar    1  UNL1        0.0054
     22 C         143.3866  138.8294  165.6570 C.ar    1  UNL1        0.0001
     23 C         141.9570  138.7401  166.1021 C.ar    1  UNL1        0.0047
     24 C         140.8600  139.2325  165.2052 C.ar    1  UNL1        0.0821
     25 C         141.1928  139.8141  163.8632 C.ar    1  UNL1        0.0659
     26 CL        140.0959  140.3064  162.9663 Cl      1  UNL1       -0.0822
     27 C         139.4304  139.1432  165.6503 C.3     1  UNL1        0.4194
     28 F         138.0007  139.0539  166.0955 F       1  UNL1       -0.1658
     29 F         139.5383  140.5049  166.2702 F       1  UNL1       -0.1658
     30 F         139.3224  137.7815  165.0305 F       1  UNL1       -0.1658
@<TRIPOS>BOND
     1     2     1    1
     2     2     3    1
     3     3     4   ar
     4     4     5   ar
     5     5     6   ar
     6     6    13    1
     7    13    14   ar
     8    14    15   ar
     9    15    16   ar
    10    16    17    1
    11    16    18   ar
    12    18    19   ar
    13     6     7   ar
    14     7     8    1
    15     8     9    1
    16     9    10    1
    17    10    11   am
    18    11    12    2
    19    11    20    1
    20    20    21   ar
    21    21    22   ar
    22    22    23   ar
    23    23    24   ar
    24    24    27    1
    25    27    28    1
    26    27    29    1
    27    27    30    1
    28    24    25   ar
    29    25    26    1
    30    10     2    1
    31    25    20   ar
    32     7     3   ar
    33    19    13   ar
@<TRIPOS>MOLECULE
*****
 30 33 0 0 0
SMALL
GASTEIGER

@<TRIPOS>ATOM
      1 C         144.2553  142.3158  159.7230 C.3     1  UNL1        0.0282
      2 C         143.5984  140.9673  159.7133 C.3     1  UNL1        0.1189
      3 C         143.6596  140.1119  158.4827 C.ar    1  UNL1        0.1138
      4 N         144.2906  140.3298  157.1394 N.ar    1  UNL1       -0.1315
      5 N         144.0236  139.1159  156.2996 N.ar    1  UNL1       -0.0576
      6 N         143.2276  138.1479  157.1239 N.ar    1  UNL1       -0.1813
      7 C         143.0027  138.7635  158.4731 C.ar    1  UNL1        0.0837
      8 C         142.2845  138.2704  159.6942 C.3     1  UNL1        0.0688
      9 C         142.2233  139.1257  160.9249 C.3     1  UNL1        0.1004
     10 N         142.8802  140.4741  160.9345 N.am    1  UNL1       -0.2719
     11 C         142.8190  141.3295  162.1653 C.2     1  UNL1        0.2501
     12 O         143.4760  142.6780  162.1748 O.2     1  UNL1       -0.2699
     13 C         142.7419  136.8008  156.6773 C.ar    1  UNL1        0.2543
     14 N         143.3868  135.5562  157.2111 N.ar    1  UNL1       -0.2060
     15 C         142.9011  134.2090  156.7645 C.ar    1  UNL1        0.1332
     16 C         141.7705  134.1066  155.7842 C.ar    1  UNL1        0.1784
     17 F         141.2848  132.7595  155.3376 F       1  UNL1       -0.2009
     18 C         141.1256  135.3513  155.2504 C.ar    1  UNL1        0.1332
     19 N         141.6112  136.6983  155.6969 N.ar    1  UNL1       -0.2060
     20 C         142.1009  140.8364  163.3864 C.ar    1  UNL1        0.0641
     21 C         140.6346  141.1046  163.5536 C.ar    1  UNL1        0.0054
     22 C         139.9165  140.6114  164.7748 C.ar    1  UNL1        0.0001
     23 C         140.6646  139.8502  165.8286 C.ar    1  UNL1        0.0047
     24 C         142.1310  139.5820  165.6613 C.ar    1  UNL1        0.0821
     25 C         142.8492  140.0751  164.4402 C.ar    1  UNL1        0.0659
     26 CL        144.3155  139.8070  164.2730 Cl      1  UNL1       -0.0822
     27 C         142.8792  138.8208  166.7152 C.3     1  UNL1        0.4194
     28 F         143.6274  138.0595  167.7691 F       1  UNL1       -0.1658
     29 F         142.8597  137.5984  165.8461 F       1  UNL1       -0.1658
     30 F         142.8987  140.0432  167.5844 F       1  UNL1       -0.1658
@<TRIPOS>BOND
     1     2     1    1
     2     2     3    1
     3     3     4   ar
     4     4     5   ar
     5     5     6   ar
     6     6    13    1
     7    13    14   ar
     8    14    15   ar
     9    15    16   ar
    10    16    17    1
    11    16    18   ar
    12    18    19   ar
    13     6     7   ar
    14     7     8    1
    15     8     9    1
    16     9    10    1
    17    10    11   am
    18    11    12    2
    19    11    20    1
    20    20    21   ar
    21    21    22   ar
    22    22    23   ar
    23    23    24   ar
    24    24    27    1
    25    27    28    1
    26    27    29    1
    27    27    30    1
    28    24    25   ar
    29    25    26    1
    30    10     2    1
    31    25    20   ar
    32     7     3   ar
    33    19    13   ar
@<TRIPOS>MOLECULE
*****
 30 33 0 0 0
SMALL
GASTEIGER

@<TRIPOS>ATOM
      1 C         140.3473  145.4476  160.5899 C.3     1  UNL1        0.0282
      2 C         140.7031  143.9904  160.5961 C.3     1  UNL1        0.1189
      3 C         140.5324  143.1713  159.3512 C.ar    1  UNL1        0.1138
      4 N         140.0397  143.5222  157.9786 N.ar    1  UNL1       -0.1315
      5 N         140.0909  142.2819  157.1366 N.ar    1  UNL1       -0.0576
      6 N         140.6154  141.1644  157.9887 N.ar    1  UNL1       -0.1813
      7 C         140.8882  141.7141  159.3575 C.ar    1  UNL1        0.0837
      8 C         141.4147  141.0760  160.6087 C.3     1  UNL1        0.0688
      9 C         141.5854  141.8951  161.8537 C.3     1  UNL1        0.1004
     10 N         141.2296  143.3522  161.8474 N.am    1  UNL1       -0.2719
     11 C         141.4003  144.1714  163.0924 C.2     1  UNL1        0.2501
     12 O         141.0445  145.6285  163.0861 O.2     1  UNL1       -0.2699
     13 C         140.8294  139.7463  157.5493 C.ar    1  UNL1        0.2543
     14 N         142.2026  139.1449  157.5990 N.ar    1  UNL1       -0.2060
     15 C         142.4167  137.7267  157.1595 C.ar    1  UNL1        0.1332
     16 C         141.2575  136.9100  156.6705 C.ar    1  UNL1        0.1784
     17 F         141.4715  135.4919  156.2311 F       1  UNL1       -0.2009
     18 C         139.8842  137.5115  156.6209 C.ar    1  UNL1        0.1332
     19 N         139.6702  138.9296  157.0603 N.ar    1  UNL1       -0.2060
     20 C         141.9268  143.5333  164.3437 C.ar    1  UNL1        0.0641
     21 C         143.4062  143.4412  164.5733 C.ar    1  UNL1        0.0054
     22 C         143.9327  142.8031  165.8246 C.ar    1  UNL1        0.0001
     23 C         142.9798  142.2571  166.8462 C.ar    1  UNL1        0.0047
     24 C         141.5002  142.3492  166.6166 C.ar    1  UNL1        0.0821
     25 C         140.9737  142.9873  165.3653 C.ar    1  UNL1        0.0659
     26 CL        139.4943  143.0794  165.1357 Cl      1  UNL1       -0.0822
     27 C         140.5473  141.8033  167.6383 C.3     1  UNL1        0.4194
     28 F         139.5943  141.2573  168.6599 F       1  UNL1       -0.1658
     29 F         140.4185  143.1680  168.2474 F       1  UNL1       -0.1658
     30 F         140.6761  140.4386  167.0291 F       1  UNL1       -0.1658
@<TRIPOS>BOND
     1     2     1    1
     2     2     3    1
     3     3     4   ar
     4     4     5   ar
     5     5     6   ar
     6     6    13    1
     7    13    14   ar
     8    14    15   ar
     9    15    16   ar
    10    16    17    1
    11    16    18   ar
    12    18    19   ar
    13     6     7   ar
    14     7     8    1
    15     8     9    1
    16     9    10    1
    17    10    11   am
    18    11    12    2
    19    11    20    1
    20    20    21   ar
    21    21    22   ar
    22    22    23   ar
    23    23    24   ar
    24    24    27    1
    25    27    28    1
    26    27    29    1
    27    27    30    1
    28    24    25   ar
    29    25    26    1
    30    10     2    1
    31    25    20   ar
    32     7     3   ar
    33    19    13   ar
