@<TRIPOS>MOLECULE
*****
 32 37 0 0 0
SMALL
GASTEIGER

@<TRIPOS>ATOM
      1 C         144.0091  141.3415  159.4822 C.ar    1  UNL1        0.2207
      2 N         143.9198  139.9036  159.0644 N.ar    1  UNL1       -0.2120
      3 C         143.4578  138.8655  160.0436 C.ar    1  UNL1        0.1033
      4 C         143.0852  139.2652  161.4405 C.ar    1  UNL1        0.0378
      5 C         142.6231  138.2270  162.4197 C.ar    1  UNL1        0.0141
      6 C         142.2505  138.6268  163.8166 C.ar    1  UNL1        0.0538
      7 CL        141.7885  137.5887  164.7958 Cl      1  UNL1       -0.0826
      8 C         142.3398  140.0647  164.2343 C.ar    1  UNL1       -0.0103
      9 C         142.8018  141.1028  163.2551 C.ar    1  UNL1        0.0158
     10 C         143.1745  140.7031  161.8582 C.ar    1  UNL1        0.0854
     11 N         143.6365  141.7412  160.8791 N.ar    1  UNL1       -0.2136
     12 C         141.9672  140.4645  165.6312 C.3     1  UNL1        0.0260
     13 C         140.5969  141.0040  165.9166 C.3     1  UNL1        0.0217
     14 C         140.2243  141.4037  167.3135 C.3     1  UNL1        0.0725
     15 N         141.2219  141.2640  168.4250 N.3     1  UNL1       -0.2697
     16 C         142.5920  140.7245  168.1396 C.3     1  UNL1        0.0725
     17 C         142.9647  140.3247  166.7427 C.3     1  UNL1        0.0217
     18 C         140.8492  141.6637  169.8219 C.3     1  UNL1        0.1172
     19 C         141.2302  141.1977  171.1959 C.3     1  UNL1        0.1606
     20 O         140.3222  142.2290  171.7974 O.3     1  UNL1       -0.3507
     21 C         139.9412  142.6950  170.4236 C.3     1  UNL1        0.1606
     22 N         144.4711  142.3797  158.5030 N.pl3   1  UNL1       -0.2803
     23 H         144.2346  143.3255  158.6400 H       1  UNL1        0.1551
     24 C         147.5695  143.2332  157.9367 C.3     1  UNL1        0.0531
     25 C         146.7177  142.3692  157.0547 C.ar    1  UNL1        0.0708
     26 C         145.2936  141.9769  157.3150 C.ar    1  UNL1        0.0850
     27 C         144.8362  141.1110  156.1787 C.ar    1  UNL1        0.1359
     28 N         145.9777  140.9682  155.2161 N.ar    1  UNL1       -0.1667
     29 N         147.1406  141.7458  155.7576 N.ar    1  UNL1       -0.2556
     30 C         148.4895  141.8770  155.1147 C.3     1  UNL1        0.1050
     31 C         149.9801  141.7222  155.1796 C.3     1  UNL1        0.0263
     32 C         149.3353  142.2591  153.9363 C.3     1  UNL1        0.0263
@<TRIPOS>BOND
     1    24    25    1
     2    25    26   ar
     3    26    22    1
     4    22     1    1
     5     1     2   ar
     6     2     3   ar
     7     3     4   ar
     8     4     5   ar
     9     5     6   ar
    10     6     7    1
    11     6     8   ar
    12     8    12    1
    13    12    13    1
    14    13    14    1
    15    14    15    1
    16    15    18    1
    17    18    19    1
    18    19    20    1
    19    20    21    1
    20    15    16    1
    21    16    17    1
    22     8     9   ar
    23     9    10   ar
    24    10    11   ar
    25    26    27   ar
    26    27    28   ar
    27    28    29   ar
    28    29    30    1
    29    30    31    1
    30    31    32    1
    31    29    25   ar
    32    32    30    1
    33    11     1   ar
    34    10     4   ar
    35    17    12    1
    36    21    18    1
    37    22    23    1
@<TRIPOS>MOLECULE
*****
 32 37 0 0 0
SMALL
GASTEIGER

@<TRIPOS>ATOM
      1 C         143.4023  139.8709  159.6030 C.ar    1  UNL1        0.2207
      2 N         143.9898  141.1122  158.9999 N.ar    1  UNL1       -0.2120
      3 C         144.1326  142.3538  159.8294 C.ar    1  UNL1        0.1033
      4 C         143.6878  142.3540  161.2620 C.ar    1  UNL1        0.0378
      5 C         143.8305  143.5956  162.0915 C.ar    1  UNL1        0.0141
      6 C         143.3857  143.5958  163.5240 C.ar    1  UNL1        0.0538
      7 CL        143.5284  144.8373  164.3535 Cl      1  UNL1       -0.0826
      8 C         142.7981  142.3543  164.1270 C.ar    1  UNL1       -0.0103
      9 C         142.6554  141.1128  163.2975 C.ar    1  UNL1        0.0158
     10 C         143.1002  141.1126  161.8650 C.ar    1  UNL1        0.0854
     11 N         142.9575  139.8710  161.0355 N.ar    1  UNL1       -0.2136
     12 C         142.3533  142.3545  165.5595 C.3     1  UNL1        0.0260
     13 C         143.3658  142.2299  166.6593 C.3     1  UNL1        0.0217
     14 C         142.9210  142.2300  168.0918 C.3     1  UNL1        0.0725
     15 N         141.4636  142.3548  168.4246 N.3     1  UNL1       -0.2697
     16 C         140.4512  142.4795  167.3249 C.3     1  UNL1        0.0725
     17 C         140.8960  142.4793  165.8923 C.3     1  UNL1        0.0217
     18 C         141.0188  142.3550  169.8571 C.3     1  UNL1        0.1172
     19 C         141.5205  141.7270  171.1236 C.3     1  UNL1        0.1606
     20 O         140.3898  142.3553  171.8830 O.3     1  UNL1       -0.3507
     21 C         139.8881  142.9832  170.6166 C.3     1  UNL1        0.1606
     22 N         143.2595  138.6292  158.7735 N.pl3   1  UNL1       -0.2803
     23 H         144.0147  138.0030  158.6906 H       1  UNL1        0.1551
     24 C         142.9385  137.6023  155.6926 C.3     1  UNL1        0.0531
     25 C         141.8187  137.8697  156.6541 C.ar    1  UNL1        0.0708
     26 C         141.9662  138.3417  158.0702 C.ar    1  UNL1        0.0850
     27 C         140.5933  138.4757  158.6595 C.ar    1  UNL1        0.1359
     28 N         139.5973  138.0865  157.6076 N.ar    1  UNL1       -0.1667
     29 N         140.3547  137.7119  156.3682 N.ar    1  UNL1       -0.2556
     30 C         139.7535  137.2591  155.0706 C.3     1  UNL1        0.1050
     31 C         139.8500  136.4667  153.8007 C.3     1  UNL1        0.0263
     32 C         138.6157  137.2674  154.0932 C.3     1  UNL1        0.0263
@<TRIPOS>BOND
     1    24    25    1
     2    25    26   ar
     3    26    22    1
     4    22     1    1
     5     1     2   ar
     6     2     3   ar
     7     3     4   ar
     8     4     5   ar
     9     5     6   ar
    10     6     7    1
    11     6     8   ar
    12     8    12    1
    13    12    13    1
    14    13    14    1
    15    14    15    1
    16    15    18    1
    17    18    19    1
    18    19    20    1
    19    20    21    1
    20    15    16    1
    21    16    17    1
    22     8     9   ar
    23     9    10   ar
    24    10    11   ar
    25    26    27   ar
    26    27    28   ar
    27    28    29   ar
    28    29    30    1
    29    30    31    1
    30    31    32    1
    31    29    25   ar
    32    32    30    1
    33    11     1   ar
    34    10     4   ar
    35    17    12    1
    36    21    18    1
    37    22    23    1
@<TRIPOS>MOLECULE
*****
 32 37 0 0 0
SMALL
GASTEIGER

@<TRIPOS>ATOM
      1 C         140.7459  140.1610  159.1312 C.ar    1  UNL1        0.2207
      2 N         139.9491  138.9080  158.9190 N.ar    1  UNL1       -0.2120
      3 C         139.4426  138.1325  160.0988 C.ar    1  UNL1        0.1033
      4 C         139.7328  138.6101  161.4909 C.ar    1  UNL1        0.0378
      5 C         139.2262  137.8345  162.6707 C.ar    1  UNL1        0.0141
      6 C         139.5164  138.3121  164.0627 C.ar    1  UNL1        0.0538
      7 CL        139.0098  137.5366  165.2426 Cl      1  UNL1       -0.0826
      8 C         140.3132  139.5652  164.2749 C.ar    1  UNL1       -0.0103
      9 C         140.8197  140.3406  163.0951 C.ar    1  UNL1        0.0158
     10 C         140.5295  139.8631  161.7031 C.ar    1  UNL1        0.0854
     11 N         141.0361  140.6385  160.5233 N.ar    1  UNL1       -0.2136
     12 C         140.6034  140.0427  165.6669 C.3     1  UNL1        0.0260
     13 C         139.7441  141.1022  166.2908 C.3     1  UNL1        0.0217
     14 C         140.0343  141.5798  167.6828 C.3     1  UNL1        0.0725
     15 N         141.1838  140.9978  168.4510 N.3     1  UNL1       -0.2697
     16 C         142.0430  139.9384  167.8271 C.3     1  UNL1        0.0725
     17 C         141.7528  139.4608  166.4351 C.3     1  UNL1        0.0217
     18 C         141.4740  141.4754  169.8430 C.3     1  UNL1        0.1172
     19 C         142.2134  142.6399  170.4323 C.3     1  UNL1        0.1606
     20 O         141.8844  142.1507  171.8116 O.3     1  UNL1       -0.3507
     21 C         141.1451  140.9863  171.2223 C.3     1  UNL1        0.1606
     22 N         141.2525  140.9365  157.9514 N.pl3   1  UNL1       -0.2803
     23 H         140.6408  141.5195  157.4461 H       1  UNL1        0.1551
     24 C         143.4858  143.3102  158.1168 C.3     1  UNL1        0.0531
     25 C         143.7174  141.9148  157.6174 C.ar    1  UNL1        0.0708
     26 C         142.6909  140.8238  157.5414 C.ar    1  UNL1        0.0850
     27 C         143.3553  139.6002  156.9833 C.ar    1  UNL1        0.1359
     28 N         144.7926  139.9351  156.7145 N.ar    1  UNL1       -0.1667
     29 N         145.0163  141.3656  157.1064 N.ar    1  UNL1       -0.2556
     30 C         146.3116  142.1153  157.0050 C.3     1  UNL1        0.1050
     31 C         147.5690  142.4406  156.2545 C.3     1  UNL1        0.0263
     32 C         147.2978  143.0884  157.5799 C.3     1  UNL1        0.0263
@<TRIPOS>BOND
     1    24    25    1
     2    25    26   ar
     3    26    22    1
     4    22     1    1
     5     1     2   ar
     6     2     3   ar
     7     3     4   ar
     8     4     5   ar
     9     5     6   ar
    10     6     7    1
    11     6     8   ar
    12     8    12    1
    13    12    13    1
    14    13    14    1
    15    14    15    1
    16    15    18    1
    17    18    19    1
    18    19    20    1
    19    20    21    1
    20    15    16    1
    21    16    17    1
    22     8     9   ar
    23     9    10   ar
    24    10    11   ar
    25    26    27   ar
    26    27    28   ar
    27    28    29   ar
    28    29    30    1
    29    30    31    1
    30    31    32    1
    31    29    25   ar
    32    32    30    1
    33    11     1   ar
    34    10     4   ar
    35    17    12    1
    36    21    18    1
    37    22    23    1
@<TRIPOS>MOLECULE
*****
 32 37 0 0 0
SMALL
GASTEIGER

@<TRIPOS>ATOM
      1 C         138.5187  140.6017  159.2182 C.ar    1  UNL1        0.2207
      2 N         138.9807  139.2285  158.8299 N.ar    1  UNL1       -0.2120
      3 C         139.5506  138.3076  159.8677 C.ar    1  UNL1        0.1033
      4 C         139.6585  138.7599  161.2938 C.ar    1  UNL1        0.0378
      5 C         140.2285  137.8390  162.3317 C.ar    1  UNL1        0.0141
      6 C         140.3363  138.2913  163.7578 C.ar    1  UNL1        0.0538
      7 CL        140.9063  137.3704  164.7956 Cl      1  UNL1       -0.0826
      8 C         139.8743  139.6646  164.1460 C.ar    1  UNL1       -0.0103
      9 C         139.3044  140.5855  163.1082 C.ar    1  UNL1        0.0158
     10 C         139.1965  140.1331  161.6821 C.ar    1  UNL1        0.0854
     11 N         138.6266  141.0540  160.6443 N.ar    1  UNL1       -0.2136
     12 C         139.9822  140.1169  165.5721 C.3     1  UNL1        0.0260
     13 C         139.0947  139.5128  166.6198 C.3     1  UNL1        0.0217
     14 C         139.2026  139.9651  168.0459 C.3     1  UNL1        0.0725
     15 N         140.1980  141.0215  168.4243 N.3     1  UNL1       -0.2697
     16 C         141.0854  141.6256  167.3767 C.3     1  UNL1        0.0725
     17 C         140.9775  141.1733  165.9506 C.3     1  UNL1        0.0217
     18 C         140.3059  141.4739  169.8504 C.3     1  UNL1        0.1172
     19 C         139.8820  142.6956  170.6107 C.3     1  UNL1        0.1606
     20 O         140.4584  142.1135  171.8672 O.3     1  UNL1       -0.3507
     21 C         140.8822  140.8919  171.1071 C.3     1  UNL1        0.1606
     22 N         137.9487  141.5227  158.1803 N.pl3   1  UNL1       -0.2803
     23 H         137.0666  141.3340  157.7859 H       1  UNL1        0.1551
     24 C         137.1268  143.5569  155.7646 C.3     1  UNL1        0.0531
     25 C         138.3449  143.6660  156.6331 C.ar    1  UNL1        0.0708
     26 C         138.7227  142.7310  157.7435 C.ar    1  UNL1        0.0850
     27 C         140.0104  143.2165  158.3404 C.ar    1  UNL1        0.1359
     28 N         140.4284  144.4515  157.5989 N.ar    1  UNL1       -0.1667
     29 N         139.3991  144.7294  156.5437 N.ar    1  UNL1       -0.2556
     30 C         139.4202  145.8703  155.5701 C.3     1  UNL1        0.1050
     31 C         140.0678  146.5868  154.4224 C.3     1  UNL1        0.0263
     32 C         138.8093  147.1299  155.0316 C.3     1  UNL1        0.0263
@<TRIPOS>BOND
     1    24    25    1
     2    25    26   ar
     3    26    22    1
     4    22     1    1
     5     1     2   ar
     6     2     3   ar
     7     3     4   ar
     8     4     5   ar
     9     5     6   ar
    10     6     7    1
    11     6     8   ar
    12     8    12    1
    13    12    13    1
    14    13    14    1
    15    14    15    1
    16    15    18    1
    17    18    19    1
    18    19    20    1
    19    20    21    1
    20    15    16    1
    21    16    17    1
    22     8     9   ar
    23     9    10   ar
    24    10    11   ar
    25    26    27   ar
    26    27    28   ar
    27    28    29   ar
    28    29    30    1
    29    30    31    1
    30    31    32    1
    31    29    25   ar
    32    32    30    1
    33    11     1   ar
    34    10     4   ar
    35    17    12    1
    36    21    18    1
    37    22    23    1
@<TRIPOS>MOLECULE
*****
 32 37 0 0 0
SMALL
GASTEIGER

@<TRIPOS>ATOM
      1 C         140.4741  140.8135  158.9756 C.ar    1  UNL1        0.2207
      2 N         140.8953  142.0963  158.3222 N.ar    1  UNL1       -0.2120
      3 C         141.3611  143.2482  159.1625 C.ar    1  UNL1        0.1033
      4 C         141.4057  143.1174  160.6561 C.ar    1  UNL1        0.0378
      5 C         141.8716  144.2694  161.4963 C.ar    1  UNL1        0.0141
      6 C         141.9162  144.1385  162.9899 C.ar    1  UNL1        0.0538
      7 CL        142.3820  145.2904  163.8302 Cl      1  UNL1       -0.0826
      8 C         141.4950  142.8556  163.6433 C.ar    1  UNL1       -0.0103
      9 C         141.0292  141.7036  162.8030 C.ar    1  UNL1        0.0158
     10 C         140.9846  141.8345  161.3094 C.ar    1  UNL1        0.0854
     11 N         140.5187  140.6826  160.4692 N.ar    1  UNL1       -0.2136
     12 C         141.5396  142.7247  165.1369 C.3     1  UNL1        0.0260
     13 C         140.3201  143.0344  165.9537 C.3     1  UNL1        0.0217
     14 C         140.3647  142.9035  167.4473 C.3     1  UNL1        0.0725
     15 N         141.6288  142.4629  168.1241 N.3     1  UNL1       -0.2697
     16 C         142.8482  142.1532  167.3073 C.3     1  UNL1        0.0725
     17 C         142.8036  142.2841  165.8137 C.3     1  UNL1        0.0217
     18 C         141.6734  142.3320  169.6177 C.3     1  UNL1        0.1172
     19 C         142.6311  142.7562  170.6915 C.3     1  UNL1        0.1606
     20 O         141.7365  142.1469  171.7300 O.3     1  UNL1       -0.3507
     21 C         140.7789  141.7227  170.6563 C.3     1  UNL1        0.1606
     22 N         140.0083  139.6615  158.1353 N.pl3   1  UNL1       -0.2803
     23 H         139.0754  139.6258  157.8227 H       1  UNL1        0.1551
     24 C         139.4306  137.2347  156.0314 C.3     1  UNL1        0.0531
     25 C         140.6982  137.4485  156.8044 C.ar    1  UNL1        0.0708
     26 C         140.9638  138.5640  157.7714 C.ar    1  UNL1        0.0850
     27 C         142.3525  138.3892  158.3107 C.ar    1  UNL1        0.1359
     28 N         142.9453  137.1657  157.6769 N.ar    1  UNL1       -0.1667
     29 N         141.9229  136.5843  156.7460 N.ar    1  UNL1       -0.2556
     30 C         142.0949  135.3546  155.9043 C.3     1  UNL1        0.1050
     31 C         142.3921  134.7190  154.5786 C.3     1  UNL1        0.0263
     32 C         142.0957  133.8605  155.7724 C.3     1  UNL1        0.0263
@<TRIPOS>BOND
     1    24    25    1
     2    25    26   ar
     3    26    22    1
     4    22     1    1
     5     1     2   ar
     6     2     3   ar
     7     3     4   ar
     8     4     5   ar
     9     5     6   ar
    10     6     7    1
    11     6     8   ar
    12     8    12    1
    13    12    13    1
    14    13    14    1
    15    14    15    1
    16    15    18    1
    17    18    19    1
    18    19    20    1
    19    20    21    1
    20    15    16    1
    21    16    17    1
    22     8     9   ar
    23     9    10   ar
    24    10    11   ar
    25    26    27   ar
    26    27    28   ar
    27    28    29   ar
    28    29    30    1
    29    30    31    1
    30    31    32    1
    31    29    25   ar
    32    32    30    1
    33    11     1   ar
    34    10     4   ar
    35    17    12    1
    36    21    18    1
    37    22    23    1
@<TRIPOS>MOLECULE
*****
 32 37 0 0 0
SMALL
GASTEIGER

@<TRIPOS>ATOM
      1 C         144.0178  140.9208  159.4579 C.ar    1  UNL1        0.2207
      2 N         143.6631  139.5934  158.8562 N.ar    1  UNL1       -0.2120
      3 C         143.0237  138.5330  159.7029 C.ar    1  UNL1        0.1033
      4 C         142.7391  138.8001  161.1512 C.ar    1  UNL1        0.0378
      5 C         142.0997  137.7397  161.9979 C.ar    1  UNL1        0.0141
      6 C         141.8151  138.0068  163.4462 C.ar    1  UNL1        0.0538
      7 CL        141.1757  136.9464  164.2928 Cl      1  UNL1       -0.0826
      8 C         142.1698  139.3343  164.0479 C.ar    1  UNL1       -0.0103
      9 C         142.8092  140.3946  163.2012 C.ar    1  UNL1        0.0158
     10 C         143.0938  140.1275  161.7529 C.ar    1  UNL1        0.0854
     11 N         143.7331  141.1879  160.9063 N.ar    1  UNL1       -0.2136
     12 C         141.8852  139.6013  165.4962 C.3     1  UNL1        0.0260
     13 C         140.5672  140.1892  165.9055 C.3     1  UNL1        0.0217
     14 C         140.2826  140.4563  167.3539 C.3     1  UNL1        0.0725
     15 N         141.3159  140.1355  168.3929 N.3     1  UNL1       -0.2697
     16 C         142.6338  139.5476  167.9835 C.3     1  UNL1        0.0725
     17 C         142.9184  139.2806  166.5352 C.3     1  UNL1        0.0217
     18 C         141.0313  140.4026  169.8412 C.3     1  UNL1        0.1172
     19 C         139.9280  140.0384  170.7900 C.3     1  UNL1        0.1606
     20 O         140.6287  140.7803  171.8894 O.3     1  UNL1       -0.3507
     21 C         141.7319  141.1444  170.9406 C.3     1  UNL1        0.1606
     22 N         144.6572  141.9813  158.6113 N.pl3   1  UNL1       -0.2803
     23 H         145.6163  142.1794  158.7117 H       1  UNL1        0.1551
     24 C         142.3169  144.1482  159.3016 C.3     1  UNL1        0.0531
     25 C         142.7595  143.7358  157.9290 C.ar    1  UNL1        0.0708
     26 C         143.8352  142.7397  157.6117 C.ar    1  UNL1        0.0850
     27 C         143.9447  142.6353  156.1194 C.ar    1  UNL1        0.1359
     28 N         142.9366  143.5668  155.5143 N.ar    1  UNL1       -0.1667
     29 N         142.2041  144.2469  156.6328 N.ar    1  UNL1       -0.2556
     30 C         141.1086  145.2603  156.4816 C.3     1  UNL1        0.1050
     31 C         140.2353  146.1082  155.6050 C.3     1  UNL1        0.0263
     32 C         140.0845  146.1677  157.0962 C.3     1  UNL1        0.0263
@<TRIPOS>BOND
     1    24    25    1
     2    25    26   ar
     3    26    22    1
     4    22     1    1
     5     1     2   ar
     6     2     3   ar
     7     3     4   ar
     8     4     5   ar
     9     5     6   ar
    10     6     7    1
    11     6     8   ar
    12     8    12    1
    13    12    13    1
    14    13    14    1
    15    14    15    1
    16    15    18    1
    17    18    19    1
    18    19    20    1
    19    20    21    1
    20    15    16    1
    21    16    17    1
    22     8     9   ar
    23     9    10   ar
    24    10    11   ar
    25    26    27   ar
    26    27    28   ar
    27    28    29   ar
    28    29    30    1
    29    30    31    1
    30    31    32    1
    31    29    25   ar
    32    32    30    1
    33    11     1   ar
    34    10     4   ar
    35    17    12    1
    36    21    18    1
    37    22    23    1
@<TRIPOS>MOLECULE
*****
 32 37 0 0 0
SMALL
GASTEIGER

@<TRIPOS>ATOM
      1 C         141.9615  140.0899  159.1774 C.ar    1  UNL1        0.2207
      2 N         140.6423  140.3378  158.5079 N.ar    1  UNL1       -0.2120
      3 C         139.4507  140.7408  159.3249 C.ar    1  UNL1        0.1033
      4 C         139.5783  140.8960  160.8114 C.ar    1  UNL1        0.0378
      5 C         138.3866  141.2991  161.6285 C.ar    1  UNL1        0.0141
      6 C         138.5142  141.4543  163.1149 C.ar    1  UNL1        0.0538
      7 CL        137.3226  141.8573  163.9320 Cl      1  UNL1       -0.0826
      8 C         139.8335  141.2064  163.7844 C.ar    1  UNL1       -0.0103
      9 C         141.0251  140.8033  162.9674 C.ar    1  UNL1        0.0158
     10 C         140.8975  140.6482  161.4809 C.ar    1  UNL1        0.0854
     11 N         142.0891  140.2451  160.6638 N.ar    1  UNL1       -0.2136
     12 C         139.9611  141.3616  165.2709 C.3     1  UNL1        0.0260
     13 C         140.2921  142.7011  165.8594 C.3     1  UNL1        0.0217
     14 C         140.4197  142.8562  167.3459 C.3     1  UNL1        0.0725
     15 N         140.2163  141.6720  168.2438 N.3     1  UNL1       -0.2697
     16 C         139.8853  140.3326  167.6553 C.3     1  UNL1        0.0725
     17 C         139.7577  140.1774  166.1688 C.3     1  UNL1        0.0217
     18 C         140.3439  141.8271  169.7303 C.3     1  UNL1        0.1172
     19 C         139.9088  142.8570  170.7305 C.3     1  UNL1        0.1606
     20 O         140.5243  142.0466  171.8325 O.3     1  UNL1       -0.3507
     21 C         140.9593  141.0169  170.8324 C.3     1  UNL1        0.1606
     22 N         143.1532  139.6868  158.3603 N.pl3   1  UNL1       -0.2803
     23 H         143.2544  138.7532  158.0648 H       1  UNL1        0.1551
     24 C         145.0907  139.5934  155.7361 C.3     1  UNL1        0.0531
     25 C         145.0811  140.6633  156.7874 C.ar    1  UNL1        0.0708
     26 C         144.1906  140.7062  157.9936 C.ar    1  UNL1        0.0850
     27 C         144.5196  141.9476  158.7687 C.ar    1  UNL1        0.1359
     28 N         145.6135  142.6718  158.0415 N.ar    1  UNL1       -0.1667
     29 N         145.9606  141.8780  156.8170 N.ar    1  UNL1       -0.2556
     30 C         147.0039  142.2362  155.8005 C.3     1  UNL1        0.1050
     31 C         147.4688  143.0984  154.6645 C.3     1  UNL1        0.0263
     32 C         148.3461  141.9944  155.1759 C.3     1  UNL1        0.0263
@<TRIPOS>BOND
     1    24    25    1
     2    25    26   ar
     3    26    22    1
     4    22     1    1
     5     1     2   ar
     6     2     3   ar
     7     3     4   ar
     8     4     5   ar
     9     5     6   ar
    10     6     7    1
    11     6     8   ar
    12     8    12    1
    13    12    13    1
    14    13    14    1
    15    14    15    1
    16    15    18    1
    17    18    19    1
    18    19    20    1
    19    20    21    1
    20    15    16    1
    21    16    17    1
    22     8     9   ar
    23     9    10   ar
    24    10    11   ar
    25    26    27   ar
    26    27    28   ar
    27    28    29   ar
    28    29    30    1
    29    30    31    1
    30    31    32    1
    31    29    25   ar
    32    32    30    1
    33    11     1   ar
    34    10     4   ar
    35    17    12    1
    36    21    18    1
    37    22    23    1
@<TRIPOS>MOLECULE
*****
 32 37 0 0 0
SMALL
GASTEIGER

@<TRIPOS>ATOM
      1 C         141.7204  141.3359  159.1129 C.ar    1  UNL1        0.2207
      2 N         142.9002  140.4681  158.7889 N.ar    1  UNL1       -0.2120
      3 C         143.7113  139.8614  159.8952 C.ar    1  UNL1        0.1033
      4 C         143.3425  140.1224  161.3255 C.ar    1  UNL1        0.0378
      5 C         144.1537  139.5156  162.4319 C.ar    1  UNL1        0.0141
      6 C         143.7849  139.7766  163.8623 C.ar    1  UNL1        0.0538
      7 CL        144.5960  139.1699  164.9686 Cl      1  UNL1       -0.0826
      8 C         142.6051  140.6444  164.1863 C.ar    1  UNL1       -0.0103
      9 C         141.7940  141.2511  163.0799 C.ar    1  UNL1        0.0158
     10 C         142.1627  140.9901  161.6496 C.ar    1  UNL1        0.0854
     11 N         141.3517  141.5969  160.5433 N.ar    1  UNL1       -0.2136
     12 C         142.2363  140.9054  165.6166 C.3     1  UNL1        0.0260
     13 C         141.1810  140.0732  166.2829 C.3     1  UNL1        0.0217
     14 C         140.8123  140.3342  167.7133 C.3     1  UNL1        0.0725
     15 N         141.4989  141.4274  168.4773 N.3     1  UNL1       -0.2697
     16 C         142.5541  142.2595  167.8110 C.3     1  UNL1        0.0725
     17 C         142.9228  141.9985  166.3806 C.3     1  UNL1        0.0217
     18 C         141.1301  141.6884  169.9077 C.3     1  UNL1        0.1172
     19 C         140.1127  142.5450  170.6014 C.3     1  UNL1        0.1606
     20 O         140.6087  142.0575  171.9305 O.3     1  UNL1       -0.3507
     21 C         141.6260  141.2010  171.2368 C.3     1  UNL1        0.1606
     22 N         140.9092  141.9427  158.0066 N.pl3   1  UNL1       -0.2803
     23 H         140.3794  141.3651  157.4108 H       1  UNL1        0.1551
     24 C         138.7057  143.6448  156.3047 C.3     1  UNL1        0.0531
     25 C         139.8925  144.2118  157.0256 C.ar    1  UNL1        0.0708
     26 C         140.9054  143.4294  157.8079 C.ar    1  UNL1        0.0850
     27 C         141.9138  144.3949  158.3567 C.ar    1  UNL1        0.1359
     28 N         141.5241  145.7739  157.9136 N.ar    1  UNL1       -0.1667
     29 N         140.2749  145.6607  157.0909 N.ar    1  UNL1       -0.2556
     30 C         139.5375  146.7971  156.4467 C.3     1  UNL1        0.1050
     31 C         138.8599  148.1312  156.5509 C.3     1  UNL1        0.0263
     32 C         138.9380  147.4311  155.2266 C.3     1  UNL1        0.0263
@<TRIPOS>BOND
     1    24    25    1
     2    25    26   ar
     3    26    22    1
     4    22     1    1
     5     1     2   ar
     6     2     3   ar
     7     3     4   ar
     8     4     5   ar
     9     5     6   ar
    10     6     7    1
    11     6     8   ar
    12     8    12    1
    13    12    13    1
    14    13    14    1
    15    14    15    1
    16    15    18    1
    17    18    19    1
    18    19    20    1
    19    20    21    1
    20    15    16    1
    21    16    17    1
    22     8     9   ar
    23     9    10   ar
    24    10    11   ar
    25    26    27   ar
    26    27    28   ar
    27    28    29   ar
    28    29    30    1
    29    30    31    1
    30    31    32    1
    31    29    25   ar
    32    32    30    1
    33    11     1   ar
    34    10     4   ar
    35    17    12    1
    36    21    18    1
    37    22    23    1
@<TRIPOS>MOLECULE
*****
 32 37 0 0 0
SMALL
GASTEIGER

@<TRIPOS>ATOM
      1 C         138.9971  140.2460  158.9595 C.ar    1  UNL1        0.2207
      2 N         139.8592  141.4156  158.5870 N.ar    1  UNL1       -0.2120
      3 C         141.0948  141.2043  157.7633 C.ar    1  UNL1        0.1033
      4 C         141.4684  139.8234  157.3122 C.ar    1  UNL1        0.0378
      5 C         142.7041  139.6121  156.4885 C.ar    1  UNL1        0.0141
      6 C         143.0777  138.2312  156.0373 C.ar    1  UNL1        0.0538
      7 CL        144.3134  138.0199  155.2136 Cl      1  UNL1       -0.0826
      8 C         142.2156  137.0616  156.4099 C.ar    1  UNL1       -0.0103
      9 C         140.9799  137.2729  157.2335 C.ar    1  UNL1        0.0158
     10 C         140.6063  138.6538  157.6847 C.ar    1  UNL1        0.0854
     11 N         139.3707  138.8651  158.5083 N.ar    1  UNL1       -0.2136
     12 C         142.5892  135.6807  155.9587 C.3     1  UNL1        0.0260
     13 C         142.1583  135.1907  154.6080 C.3     1  UNL1        0.0217
     14 C         142.5318  133.8098  154.1568 C.3     1  UNL1        0.0725
     15 N         143.3363  132.9189  155.0564 N.3     1  UNL1       -0.2697
     16 C         143.7672  133.4089  156.4070 C.3     1  UNL1        0.0725
     17 C         143.3936  134.7898  156.8582 C.3     1  UNL1        0.0217
     18 C         143.7099  131.5380  154.6052 C.3     1  UNL1        0.1172
     19 C         144.5064  130.4099  155.1910 C.3     1  UNL1        0.1606
     20 O         144.2382  129.5851  153.9672 O.3     1  UNL1       -0.3507
     21 C         143.4418  130.7131  153.3815 C.3     1  UNL1        0.1606
     22 N         137.7614  140.4573  159.7832 N.pl3   1  UNL1       -0.2803
     23 H         136.8824  140.5215  159.3445 H       1  UNL1        0.1551
     24 C         138.1167  137.9781  161.8753 C.3     1  UNL1        0.0531
     25 C         138.0283  139.4312  162.2369 C.ar    1  UNL1        0.0708
     26 C         137.8649  140.5707  161.2753 C.ar    1  UNL1        0.0850
     27 C         137.8233  141.8437  162.0677 C.ar    1  UNL1        0.1359
     28 N         137.9610  141.4909  163.5191 N.ar    1  UNL1       -0.1667
     29 N         138.0876  139.9998  163.6237 N.ar    1  UNL1       -0.2556
     30 C         138.2459  139.2152  164.8923 C.3     1  UNL1        0.1050
     31 C         138.0462  139.0861  166.3733 C.3     1  UNL1        0.0263
     32 C         138.7196  137.9854  165.6085 C.3     1  UNL1        0.0263
@<TRIPOS>BOND
     1    24    25    1
     2    25    26   ar
     3    26    22    1
     4    22     1    1
     5     1     2   ar
     6     2     3   ar
     7     3     4   ar
     8     4     5   ar
     9     5     6   ar
    10     6     7    1
    11     6     8   ar
    12     8    12    1
    13    12    13    1
    14    13    14    1
    15    14    15    1
    16    15    18    1
    17    18    19    1
    18    19    20    1
    19    20    21    1
    20    15    16    1
    21    16    17    1
    22     8     9   ar
    23     9    10   ar
    24    10    11   ar
    25    26    27   ar
    26    27    28   ar
    27    28    29   ar
    28    29    30    1
    29    30    31    1
    30    31    32    1
    31    29    25   ar
    32    32    30    1
    33    11     1   ar
    34    10     4   ar
    35    17    12    1
    36    21    18    1
    37    22    23    1
