@<TRIPOS>MOLECULE
*****
 39 42 0 0 0
SMALL
GASTEIGER

@<TRIPOS>ATOM
      1 N         140.2546  138.8653  163.0518 N.3     1  UNL1       -0.2711
      2 C         141.1839  139.4598  162.0354 C.3     1  UNL1        0.0933
      3 C         140.6534  138.5154  160.9979 C.3     1  UNL1        0.1035
      4 C         139.7241  137.9209  162.0142 C.3     1  UNL1        0.0933
      5 C         139.4087  139.6076  167.4087 C.3     1  UNL1        0.1232
      6 O         138.3494  139.3374  168.4359 O.3     1  UNL1       -0.3812
      7 C         140.6857  140.1032  166.7977 C.3     1  UNL1        0.0341
      8 C         140.9677  139.8558  165.3453 C.3     1  UNL1        0.0188
      9 C         139.9726  139.1127  164.5041 C.3     1  UNL1        0.0578
     10 C         138.6956  138.6171  165.1152 C.3     1  UNL1        0.0188
     11 C         138.4136  138.8645  166.5675 C.3     1  UNL1        0.0341
     12 H         138.6233  139.7102  169.2885 H       1  UNL1        0.2107
     13 C         142.1554  141.0270  169.8969 C.ar    1  UNL1        0.2247
     14 C         141.2904  141.5553  171.0026 C.ar    1  UNL1        0.0577
     15 C         139.7981  141.4343  170.9103 C.ar    1  UNL1        0.0061
     16 C         139.1709  140.7851  169.7124 C.ar    1  UNL1        0.0173
     17 C         140.0359  140.2569  168.6067 C.ar    1  UNL1        0.0861
     18 N         141.5282  140.3778  168.6990 N.ar    1  UNL1       -0.2137
     19 C         144.2931  142.5019  169.9682 C.3     1  UNL1        0.2542
     20 O         143.6477  141.1480  169.9891 O.3     1  UNL1       -0.4561
     21 N         140.9354  138.2680  159.5455 N.am    1  UNL1       -0.3018
     22 C         139.9026  138.6083  158.5124 C.2     1  UNL1        0.2426
     23 O         138.5877  139.1961  158.9315 O.2     1  UNL1       -0.2733
     24 H         141.7984  137.8822  159.2704 H       1  UNL1        0.1495
     25 C         140.1846  138.3609  157.0600 C.3     1  UNL1        0.1759
     26 N         140.6549  137.0106  156.6068 N.am    1  UNL1       -0.2931
     27 C         142.1053  136.6449  156.7193 C.2     1  UNL1        0.2462
     28 O         143.0854  137.6295  157.2850 O.2     1  UNL1       -0.2701
     29 H         140.0117  136.3644  156.2355 H       1  UNL1        0.1502
     30 C         142.5756  135.2946  156.2660 C.ar    1  UNL1        0.0533
     31 C         142.0811  134.7243  154.9698 C.ar    1  UNL1        0.0045
     32 C         142.5515  133.3740  154.5166 C.ar    1  UNL1        0.0001
     33 C         143.5163  132.5939  155.3596 C.ar    1  UNL1        0.0039
     34 C         144.0108  133.1642  156.6558 C.ar    1  UNL1        0.0716
     35 C         143.5404  134.5145  157.1090 C.ar    1  UNL1        0.0084
     36 C         144.9756  132.3842  157.4988 C.3     1  UNL1        0.4186
     37 F         145.9405  131.6041  158.3418 F       1  UNL1       -0.1659
     38 F         145.2071  131.4379  156.3582 F       1  UNL1       -0.1659
     39 F         144.7441  133.3304  158.6394 F       1  UNL1       -0.1659
@<TRIPOS>BOND
     1    19    20    1
     2    20    13    1
     3    13    14   ar
     4    14    15   ar
     5    15    16   ar
     6    16    17   ar
     7    17     5    1
     8     5     6    1
     9     5     7    1
    10     7     8    1
    11     8     9    1
    12     9     1    1
    13     1     2    1
    14     2     3    1
    15     3    21    1
    16    21    22   am
    17    22    23    2
    18    22    25    1
    19    25    26    1
    20    26    27   am
    21    27    28    2
    22    27    30    1
    23    30    31   ar
    24    31    32   ar
    25    32    33   ar
    26    33    34   ar
    27    34    36    1
    28    36    37    1
    29    36    38    1
    30    36    39    1
    31    34    35   ar
    32     3     4    1
    33     9    10    1
    34    10    11    1
    35    17    18   ar
    36    18    13   ar
    37    11     5    1
    38     4     1    1
    39    35    30   ar
    40     6    12    1
    41    21    24    1
    42    26    29    1
@<TRIPOS>MOLECULE
*****
 39 42 0 0 0
SMALL
GASTEIGER

@<TRIPOS>ATOM
      1 N         142.7068  138.6073  163.2230 N.3     1  UNL1       -0.2711
      2 C         141.7257  138.2280  162.1536 C.3     1  UNL1        0.0933
      3 C         142.8495  138.0976  161.1688 C.3     1  UNL1        0.1035
      4 C         143.8306  138.4769  162.2382 C.3     1  UNL1        0.0933
      5 C         142.4039  139.6886  167.5806 C.3     1  UNL1        0.1232
      6 O         142.9405  139.2542  168.9124 O.3     1  UNL1       -0.3812
      7 C         141.6273  140.4656  166.5594 C.3     1  UNL1        0.0341
      8 C         141.7282  140.1052  165.1068 C.3     1  UNL1        0.0188
      9 C         142.6058  138.9677  164.6756 C.3     1  UNL1        0.0578
     10 C         143.3824  138.1907  165.6968 C.3     1  UNL1        0.0188
     11 C         143.2815  138.5511  167.1494 C.3     1  UNL1        0.0341
     12 H         142.5705  139.8180  169.6095 H       1  UNL1        0.2107
     13 C         139.6650  141.3467  169.9256 C.ar    1  UNL1        0.2247
     14 C         140.3302  142.6484  170.2619 C.ar    1  UNL1        0.0577
     15 C         141.6867  142.9634  169.7045 C.ar    1  UNL1        0.0061
     16 C         142.3779  141.9769  168.8108 C.ar    1  UNL1        0.0173
     17 C         141.7127  140.6752  168.4744 C.ar    1  UNL1        0.0861
     18 N         140.3562  140.3602  169.0318 N.ar    1  UNL1       -0.2137
     19 C         137.7784  139.6299  170.4191 C.3     1  UNL1        0.2542
     20 O         138.3085  141.0317  170.4830 O.3     1  UNL1       -0.4561
     21 N         142.9505  137.7372  159.7162 N.am    1  UNL1       -0.3018
     22 C         142.6910  138.7761  158.6659 C.2     1  UNL1        0.2426
     23 O         142.3306  140.1755  159.0681 O.2     1  UNL1       -0.2733
     24 H         143.1870  136.8187  159.4523 H       1  UNL1        0.1495
     25 C         142.7920  138.4157  157.2133 C.3     1  UNL1        0.1759
     26 N         142.5728  136.9979  156.7754 N.am    1  UNL1       -0.2931
     27 C         143.5997  136.3075  155.9277 C.2     1  UNL1        0.2462
     28 O         144.8460  137.0349  155.5179 O.2     1  UNL1       -0.2701
     29 H         141.7548  136.5205  157.0443 H       1  UNL1        0.1502
     30 C         143.3805  134.8897  155.4898 C.ar    1  UNL1        0.0533
     31 C         142.6232  134.6033  154.2271 C.ar    1  UNL1        0.0045
     32 C         142.4040  133.1855  153.7892 C.ar    1  UNL1        0.0001
     33 C         142.9421  132.0541  154.6140 C.ar    1  UNL1        0.0039
     34 C         143.6995  132.3404  155.8767 C.ar    1  UNL1        0.0716
     35 C         143.9186  133.7583  156.3146 C.ar    1  UNL1        0.0084
     36 C         144.2376  131.2090  156.7015 C.3     1  UNL1        0.4186
     37 F         144.7757  130.0776  157.5263 F       1  UNL1       -0.1659
     38 F         143.1519  131.4298  157.7127 F       1  UNL1       -0.1659
     39 F         145.3233  130.9882  155.6903 F       1  UNL1       -0.1659
@<TRIPOS>BOND
     1    19    20    1
     2    20    13    1
     3    13    14   ar
     4    14    15   ar
     5    15    16   ar
     6    16    17   ar
     7    17     5    1
     8     5     6    1
     9     5     7    1
    10     7     8    1
    11     8     9    1
    12     9     1    1
    13     1     2    1
    14     2     3    1
    15     3    21    1
    16    21    22   am
    17    22    23    2
    18    22    25    1
    19    25    26    1
    20    26    27   am
    21    27    28    2
    22    27    30    1
    23    30    31   ar
    24    31    32   ar
    25    32    33   ar
    26    33    34   ar
    27    34    36    1
    28    36    37    1
    29    36    38    1
    30    36    39    1
    31    34    35   ar
    32     3     4    1
    33     9    10    1
    34    10    11    1
    35    17    18   ar
    36    18    13   ar
    37    11     5    1
    38     4     1    1
    39    35    30   ar
    40     6    12    1
    41    21    24    1
    42    26    29    1
@<TRIPOS>MOLECULE
*****
 39 42 0 0 0
SMALL
GASTEIGER

@<TRIPOS>ATOM
      1 N         142.4391  138.5753  163.1522 N.3     1  UNL1       -0.2711
      2 C         141.4397  138.4313  162.0429 C.3     1  UNL1        0.0933
      3 C         142.5486  138.1103  161.0853 C.3     1  UNL1        0.1035
      4 C         143.5481  138.2543  162.1946 C.3     1  UNL1        0.0933
      5 C         142.2067  139.5615  167.5366 C.3     1  UNL1        0.1232
      6 O         142.8859  139.2181  168.8292 O.3     1  UNL1       -0.3812
      7 C         141.2505  140.1991  166.5727 C.3     1  UNL1        0.0341
      8 C         141.3279  139.8704  165.1113 C.3     1  UNL1        0.0188
      9 C         142.3617  138.9040  164.6137 C.3     1  UNL1        0.0578
     10 C         143.3179  138.2664  165.5775 C.3     1  UNL1        0.0188
     11 C         143.2404  138.5951  167.0390 C.3     1  UNL1        0.0341
     12 H         142.4653  139.7054  169.5548 H       1  UNL1        0.2107
     13 C         141.2252  142.4810  170.0393 C.ar    1  UNL1        0.2247
     14 C         139.8134  142.1028  170.3762 C.ar    1  UNL1        0.0577
     15 C         139.1993  140.8776  169.7666 C.ar    1  UNL1        0.0061
     16 C         139.9970  140.0305  168.8201 C.ar    1  UNL1        0.0173
     17 C         141.4089  140.4086  168.4831 C.ar    1  UNL1        0.0861
     18 N         142.0230  141.6339  169.0927 N.ar    1  UNL1       -0.2137
     19 C         143.3084  143.7384  170.9498 C.3     1  UNL1        0.2542
     20 O         141.8393  143.7063  170.6488 O.3     1  UNL1       -0.4561
     21 N         142.6261  137.7816  159.6238 N.am    1  UNL1       -0.3018
     22 C         142.8763  138.8700  158.6225 C.2     1  UNL1        0.2426
     23 O         143.0491  140.2872  159.0826 O.2     1  UNL1       -0.2733
     24 H         142.5126  136.8515  159.3218 H       1  UNL1        0.1495
     25 C         142.9538  138.5412  157.1610 C.3     1  UNL1        0.1759
     26 N         143.3652  137.1672  156.7221 N.am    1  UNL1       -0.2931
     27 C         142.3295  136.1870  156.2565 C.2     1  UNL1        0.2462
     28 O         140.8824  136.5810  156.2299 O.2     1  UNL1       -0.2701
     29 H         144.3150  136.9086  156.7396 H       1  UNL1        0.1502
     30 C         142.7410  134.8130  155.8177 C.ar    1  UNL1        0.0533
     31 C         142.2851  134.2814  154.4912 C.ar    1  UNL1        0.0045
     32 C         142.6966  132.9073  154.0524 C.ar    1  UNL1        0.0001
     33 C         143.5639  132.0648  154.9400 C.ar    1  UNL1        0.0039
     34 C         144.0198  132.5964  156.2665 C.ar    1  UNL1        0.0716
     35 C         143.6083  133.9705  156.7053 C.ar    1  UNL1        0.0084
     36 C         144.8872  131.7539  157.1541 C.3     1  UNL1        0.4186
     37 F         145.7545  130.9114  158.0417 F       1  UNL1       -0.1659
     38 F         144.4635  132.5678  158.3407 F       1  UNL1       -0.1659
     39 F         145.3108  130.9399  155.9675 F       1  UNL1       -0.1659
@<TRIPOS>BOND
     1    19    20    1
     2    20    13    1
     3    13    14   ar
     4    14    15   ar
     5    15    16   ar
     6    16    17   ar
     7    17     5    1
     8     5     6    1
     9     5     7    1
    10     7     8    1
    11     8     9    1
    12     9     1    1
    13     1     2    1
    14     2     3    1
    15     3    21    1
    16    21    22   am
    17    22    23    2
    18    22    25    1
    19    25    26    1
    20    26    27   am
    21    27    28    2
    22    27    30    1
    23    30    31   ar
    24    31    32   ar
    25    32    33   ar
    26    33    34   ar
    27    34    36    1
    28    36    37    1
    29    36    38    1
    30    36    39    1
    31    34    35   ar
    32     3     4    1
    33     9    10    1
    34    10    11    1
    35    17    18   ar
    36    18    13   ar
    37    11     5    1
    38     4     1    1
    39    35    30   ar
    40     6    12    1
    41    21    24    1
    42    26    29    1
@<TRIPOS>MOLECULE
*****
 39 42 0 0 0
SMALL
GASTEIGER

@<TRIPOS>ATOM
      1 N         141.9730  138.8352  162.6666 N.3     1  UNL1       -0.2711
      2 C         142.6065  139.4362  161.4469 C.3     1  UNL1        0.0933
      3 C         141.9226  138.4142  160.5880 C.3     1  UNL1        0.1035
      4 C         141.2891  137.8132  161.8077 C.3     1  UNL1        0.0933
      5 C         142.0799  139.7284  167.0757 C.3     1  UNL1        0.1232
      6 O         142.9227  139.4487  168.2847 O.3     1  UNL1       -0.3812
      7 C         140.9635  140.2636  166.2290 C.3     1  UNL1        0.0341
      8 C         140.9278  139.9659  164.7592 C.3     1  UNL1        0.0188
      9 C         142.0087  139.1329  164.1363 C.3     1  UNL1        0.0578
     10 C         143.1251  138.5977  164.9830 C.3     1  UNL1        0.0188
     11 C         143.1608  138.8954  166.4528 C.3     1  UNL1        0.0341
     12 H         142.5258  139.8740  169.0609 H       1  UNL1        0.2107
     13 C         139.5922  140.4457  170.0835 C.ar    1  UNL1        0.2247
     14 C         139.7156  141.9357  170.2042 C.ar    1  UNL1        0.0577
     15 C         140.6271  142.6899  169.2821 C.ar    1  UNL1        0.0061
     16 C         141.4152  141.9542  168.2393 C.ar    1  UNL1        0.0173
     17 C         141.2918  140.4642  168.1186 C.ar    1  UNL1        0.0861
     18 N         140.3803  139.7100  169.0406 N.ar    1  UNL1       -0.2137
     19 C         137.2757  139.3804  170.5822 C.3     1  UNL1        0.2542
     20 O         138.6806  139.6915  171.0055 O.3     1  UNL1       -0.4561
     21 N         141.8869  138.1165  159.1183 N.am    1  UNL1       -0.3018
     22 C         140.5927  138.2085  158.3657 C.2     1  UNL1        0.2426
     23 O         139.3341  138.5981  159.0826 O.2     1  UNL1       -0.2733
     24 H         142.7129  137.8607  158.6477 H       1  UNL1        0.1495
     25 C         140.5571  137.9107  156.8959 C.3     1  UNL1        0.1759
     26 N         140.8504  136.5244  156.4041 N.am    1  UNL1       -0.2931
     27 C         142.2628  136.0199  156.3811 C.2     1  UNL1        0.2462
     28 O         143.3820  136.9019  156.8499 O.2     1  UNL1       -0.2701
     29 H         140.1159  135.9455  156.0965 H       1  UNL1        0.1502
     30 C         142.5562  134.6335  155.8894 C.ar    1  UNL1        0.0533
     31 C         143.8747  133.9902  156.2019 C.ar    1  UNL1        0.0045
     32 C         144.1680  132.6038  155.7101 C.ar    1  UNL1        0.0001
     33 C         143.1428  131.8607  154.9059 C.ar    1  UNL1        0.0039
     34 C         141.8242  132.5040  154.5935 C.ar    1  UNL1        0.0716
     35 C         141.5310  133.8904  155.0852 C.ar    1  UNL1        0.0084
     36 C         140.7990  131.7609  153.7893 C.3     1  UNL1        0.4186
     37 F         139.7738  131.0177  152.9851 F       1  UNL1       -0.1659
     38 F         139.9584  131.5891  155.0196 F       1  UNL1       -0.1659
     39 F         141.6397  131.9326  152.5589 F       1  UNL1       -0.1659
@<TRIPOS>BOND
     1    19    20    1
     2    20    13    1
     3    13    14   ar
     4    14    15   ar
     5    15    16   ar
     6    16    17   ar
     7    17     5    1
     8     5     6    1
     9     5     7    1
    10     7     8    1
    11     8     9    1
    12     9     1    1
    13     1     2    1
    14     2     3    1
    15     3    21    1
    16    21    22   am
    17    22    23    2
    18    22    25    1
    19    25    26    1
    20    26    27   am
    21    27    28    2
    22    27    30    1
    23    30    31   ar
    24    31    32   ar
    25    32    33   ar
    26    33    34   ar
    27    34    36    1
    28    36    37    1
    29    36    38    1
    30    36    39    1
    31    34    35   ar
    32     3     4    1
    33     9    10    1
    34    10    11    1
    35    17    18   ar
    36    18    13   ar
    37    11     5    1
    38     4     1    1
    39    35    30   ar
    40     6    12    1
    41    21    24    1
    42    26    29    1
@<TRIPOS>MOLECULE
*****
 39 42 0 0 0
SMALL
GASTEIGER

@<TRIPOS>ATOM
      1 N         143.4791  140.6408  162.3545 N.3     1  UNL1       -0.2711
      2 C         144.0467  139.4328  161.6701 C.3     1  UNL1        0.0933
      3 C         143.8182  140.0807  160.3367 C.3     1  UNL1        0.1035
      4 C         143.2506  141.2887  161.0212 C.3     1  UNL1        0.0933
      5 C         142.7595  141.8288  166.6347 C.3     1  UNL1        0.1232
      6 O         143.3196  142.7441  167.6829 O.3     1  UNL1       -0.3812
      7 C         141.8773  140.8064  165.9818 C.3     1  UNL1        0.0341
      8 C         142.1172  140.4104  164.5550 C.3     1  UNL1        0.0188
      9 C         143.2392  141.0368  163.7813 C.3     1  UNL1        0.0578
     10 C         144.1214  142.0592  164.4342 C.3     1  UNL1        0.0188
     11 C         143.8816  142.4552  165.8610 C.3     1  UNL1        0.0341
     12 H         142.8059  142.6520  168.5006 H       1  UNL1        0.2107
     13 C         139.7189  140.3195  168.6906 C.ar    1  UNL1        0.2247
     14 C         139.9769  140.9032  170.0480 C.ar    1  UNL1        0.0577
     15 C         141.1624  141.7956  170.2677 C.ar    1  UNL1        0.0061
     16 C         142.0900  142.1041  169.1300 C.ar    1  UNL1        0.0173
     17 C         141.8319  141.5203  167.7726 C.ar    1  UNL1        0.0861
     18 N         140.6464  140.6280  167.5529 N.ar    1  UNL1       -0.2137
     19 C         138.1995  138.9502  167.0885 C.3     1  UNL1        0.2542
     20 O         138.5333  139.4272  168.4709 O.3     1  UNL1       -0.4561
     21 N         144.0581  139.6847  158.9100 N.am    1  UNL1       -0.3018
     22 C         142.9698  139.0150  158.1245 C.2     1  UNL1        0.2426
     23 O         141.6416  138.7414  158.7655 O.2     1  UNL1       -0.2733
     24 H         144.9298  139.8643  158.4892 H       1  UNL1        0.1495
     25 C         143.2097  138.6190  156.6976 C.3     1  UNL1        0.1759
     26 N         143.5944  137.2078  156.3655 N.am    1  UNL1       -0.2931
     27 C         142.5322  136.1662  156.1737 C.2     1  UNL1        0.2462
     28 O         141.0852  136.5359  156.3139 O.2     1  UNL1       -0.2701
     29 H         144.5441  136.9651  156.2735 H       1  UNL1        0.1502
     30 C         142.9169  134.7549  155.8416 C.ar    1  UNL1        0.0533
     31 C         142.5059  134.1544  154.5299 C.ar    1  UNL1        0.0045
     32 C         142.8907  132.7431  154.1979 C.ar    1  UNL1        0.0001
     33 C         143.6863  131.9323  155.1775 C.ar    1  UNL1        0.0039
     34 C         144.0973  132.5329  156.4892 C.ar    1  UNL1        0.0716
     35 C         143.7125  133.9442  156.8212 C.ar    1  UNL1        0.0084
     36 C         144.8929  131.7221  157.4687 C.3     1  UNL1        0.4186
     37 F         145.6886  130.9114  158.4483 F       1  UNL1       -0.1659
     38 F         145.2794  132.9772  158.1936 F       1  UNL1       -0.1659
     39 F         144.5065  130.4671  156.7438 F       1  UNL1       -0.1659
@<TRIPOS>BOND
     1    19    20    1
     2    20    13    1
     3    13    14   ar
     4    14    15   ar
     5    15    16   ar
     6    16    17   ar
     7    17     5    1
     8     5     6    1
     9     5     7    1
    10     7     8    1
    11     8     9    1
    12     9     1    1
    13     1     2    1
    14     2     3    1
    15     3    21    1
    16    21    22   am
    17    22    23    2
    18    22    25    1
    19    25    26    1
    20    26    27   am
    21    27    28    2
    22    27    30    1
    23    30    31   ar
    24    31    32   ar
    25    32    33   ar
    26    33    34   ar
    27    34    36    1
    28    36    37    1
    29    36    38    1
    30    36    39    1
    31    34    35   ar
    32     3     4    1
    33     9    10    1
    34    10    11    1
    35    17    18   ar
    36    18    13   ar
    37    11     5    1
    38     4     1    1
    39    35    30   ar
    40     6    12    1
    41    21    24    1
    42    26    29    1
@<TRIPOS>MOLECULE
*****
 39 42 0 0 0
SMALL
GASTEIGER

@<TRIPOS>ATOM
      1 N         139.7847  140.7200  161.8003 N.3     1  UNL1       -0.2711
      2 C         138.3351  140.8807  161.4499 C.3     1  UNL1        0.0933
      3 C         138.6196  140.4071  160.0554 C.3     1  UNL1        0.1035
      4 C         140.0692  140.2465  160.4058 C.3     1  UNL1        0.0933
      5 C         142.2562  141.3836  165.5018 C.3     1  UNL1        0.1232
      6 O         143.5634  141.9910  165.9170 O.3     1  UNL1       -0.3812
      7 C         140.9334  140.6831  165.5988 C.3     1  UNL1        0.0341
      8 C         140.1096  140.4619  164.3650 C.3     1  UNL1        0.0188
      9 C         140.6085  140.9412  163.0341 C.3     1  UNL1        0.0578
     10 C         141.9313  141.6417  162.9370 C.3     1  UNL1        0.0188
     11 C         142.7552  141.8630  164.1708 C.3     1  UNL1        0.0341
     12 H         143.6768  141.8904  166.8751 H       1  UNL1        0.2107
     13 C         141.7985  141.9466  169.4035 C.ar    1  UNL1        0.2247
     14 C         142.1212  140.5786  169.9271 C.ar    1  UNL1        0.0577
     15 C         142.4890  139.4789  168.9756 C.ar    1  UNL1        0.0061
     16 C         142.5340  139.7472  167.5005 C.ar    1  UNL1        0.0173
     17 C         142.2112  141.1152  166.9769 C.ar    1  UNL1        0.0861
     18 N         141.8434  142.2150  167.9284 N.ar    1  UNL1       -0.2137
     19 C         140.4348  144.0906  169.9455 C.3     1  UNL1        0.2542
     20 O         141.4307  143.0464  170.3550 O.3     1  UNL1       -0.4561
     21 N         137.7957  140.1859  158.8215 N.am    1  UNL1       -0.3018
     22 C         137.7744  141.2230  157.7381 C.2     1  UNL1        0.2426
     23 O         138.5769  142.4813  157.8883 O.2     1  UNL1       -0.2733
     24 H         137.2690  139.3600  158.7229 H       1  UNL1        0.1495
     25 C         136.9505  141.0017  156.5042 C.3     1  UNL1        0.1759
     26 N         135.4573  141.1302  156.5664 N.am    1  UNL1       -0.2931
     27 C         134.5873  140.0623  155.9726 C.2     1  UNL1        0.2462
     28 O         135.2104  138.8659  155.3166 O.2     1  UNL1       -0.2701
     29 H         135.0484  141.9154  156.9969 H       1  UNL1        0.1502
     30 C         133.0941  140.1908  156.0348 C.ar    1  UNL1        0.0533
     31 C         132.4125  141.3483  155.3672 C.ar    1  UNL1        0.0045
     32 C         130.9193  141.4767  155.4294 C.ar    1  UNL1        0.0001
     33 C         130.1077  140.4477  156.1592 C.ar    1  UNL1        0.0039
     34 C         130.7894  139.2903  156.8268 C.ar    1  UNL1        0.0716
     35 C         132.2826  139.1618  156.7646 C.ar    1  UNL1        0.0084
     36 C         129.9778  138.2613  157.5566 C.3     1  UNL1        0.4186
     37 F         129.1662  137.2324  158.2865 F       1  UNL1       -0.1659
     38 F         129.8030  139.2124  158.7033 F       1  UNL1       -0.1659
     39 F         130.1526  137.3102  156.4100 F       1  UNL1       -0.1659
@<TRIPOS>BOND
     1    19    20    1
     2    20    13    1
     3    13    14   ar
     4    14    15   ar
     5    15    16   ar
     6    16    17   ar
     7    17     5    1
     8     5     6    1
     9     5     7    1
    10     7     8    1
    11     8     9    1
    12     9     1    1
    13     1     2    1
    14     2     3    1
    15     3    21    1
    16    21    22   am
    17    22    23    2
    18    22    25    1
    19    25    26    1
    20    26    27   am
    21    27    28    2
    22    27    30    1
    23    30    31   ar
    24    31    32   ar
    25    32    33   ar
    26    33    34   ar
    27    34    36    1
    28    36    37    1
    29    36    38    1
    30    36    39    1
    31    34    35   ar
    32     3     4    1
    33     9    10    1
    34    10    11    1
    35    17    18   ar
    36    18    13   ar
    37    11     5    1
    38     4     1    1
    39    35    30   ar
    40     6    12    1
    41    21    24    1
    42    26    29    1
@<TRIPOS>MOLECULE
*****
 39 42 0 0 0
SMALL
GASTEIGER

@<TRIPOS>ATOM
      1 N         143.0643  138.7587  162.6036 N.3     1  UNL1       -0.2711
      2 C         142.1131  137.8940  161.8306 C.3     1  UNL1        0.0933
      3 C         143.1511  137.7050  160.7645 C.3     1  UNL1        0.1035
      4 C         144.1023  138.5697  161.5374 C.3     1  UNL1        0.0933
      5 C         142.8801  140.9938  166.5048 C.3     1  UNL1        0.1232
      6 O         143.2673  142.3202  167.0886 O.3     1  UNL1       -0.3812
      7 C         142.3257  139.6033  166.4103 C.3     1  UNL1        0.0341
      8 C         142.3871  138.8582  165.1098 C.3     1  UNL1        0.0188
      9 C         143.0029  139.5038  163.9040 C.3     1  UNL1        0.0578
     10 C         143.5573  140.8943  163.9985 C.3     1  UNL1        0.0188
     11 C         143.4959  141.6394  165.2989 C.3     1  UNL1        0.0341
     12 H         143.0112  142.3491  168.0237 H       1  UNL1        0.2107
     13 C         141.2609  141.7623  170.0457 C.ar    1  UNL1        0.2247
     14 C         141.4361  140.4394  170.7306 C.ar    1  UNL1        0.0577
     15 C         142.0927  139.3013  170.0070 C.ar    1  UNL1        0.0061
     16 C         142.5740  139.4861  168.5984 C.ar    1  UNL1        0.0173
     17 C         142.3987  140.8090  167.9135 C.ar    1  UNL1        0.0861
     18 N         141.7422  141.9471  168.6371 N.ar    1  UNL1       -0.2137
     19 C         140.3747  144.2044  170.0647 C.3     1  UNL1        0.2542
     20 O         140.6043  142.9004  170.7693 O.3     1  UNL1       -0.4561
     21 N         143.2125  136.9599  159.4641 N.am    1  UNL1       -0.3018
     22 C         142.6385  137.5724  158.2210 C.2     1  UNL1        0.2426
     23 O         142.0031  138.9299  158.2781 O.2     1  UNL1       -0.2733
     24 H         143.6296  136.0689  159.4265 H       1  UNL1        0.1495
     25 C         142.6999  136.8272  156.9205 C.3     1  UNL1        0.1759
     26 N         142.8150  135.3317  156.9177 N.am    1  UNL1       -0.2931
     27 C         142.8975  134.5882  155.6175 C.2     1  UNL1        0.2462
     28 O         142.8648  135.3404  154.3201 O.2     1  UNL1       -0.2701
     29 H         142.8365  134.8381  157.7692 H       1  UNL1        0.1502
     30 C         143.0126  133.0927  155.6148 C.ar    1  UNL1        0.0533
     31 C         144.3216  132.4406  155.9485 C.ar    1  UNL1        0.0045
     32 C         144.4366  130.9450  155.9457 C.ar    1  UNL1        0.0001
     33 C         143.2428  130.1015  155.6092 C.ar    1  UNL1        0.0039
     34 C         141.9338  130.7536  155.2756 C.ar    1  UNL1        0.0716
     35 C         141.8187  132.2492  155.2784 C.ar    1  UNL1        0.0084
     36 C         140.7399  129.9101  154.9391 C.3     1  UNL1        0.4186
     37 F         139.5461  129.0666  154.6027 F       1  UNL1       -0.1659
     38 F         139.8686  131.1307  154.9708 F       1  UNL1       -0.1659
     39 F         141.6112  128.6895  154.9075 F       1  UNL1       -0.1659
@<TRIPOS>BOND
     1    19    20    1
     2    20    13    1
     3    13    14   ar
     4    14    15   ar
     5    15    16   ar
     6    16    17   ar
     7    17     5    1
     8     5     6    1
     9     5     7    1
    10     7     8    1
    11     8     9    1
    12     9     1    1
    13     1     2    1
    14     2     3    1
    15     3    21    1
    16    21    22   am
    17    22    23    2
    18    22    25    1
    19    25    26    1
    20    26    27   am
    21    27    28    2
    22    27    30    1
    23    30    31   ar
    24    31    32   ar
    25    32    33   ar
    26    33    34   ar
    27    34    36    1
    28    36    37    1
    29    36    38    1
    30    36    39    1
    31    34    35   ar
    32     3     4    1
    33     9    10    1
    34    10    11    1
    35    17    18   ar
    36    18    13   ar
    37    11     5    1
    38     4     1    1
    39    35    30   ar
    40     6    12    1
    41    21    24    1
    42    26    29    1
@<TRIPOS>MOLECULE
*****
 39 42 0 0 0
SMALL
GASTEIGER

@<TRIPOS>ATOM
      1 N         142.7563  139.1384  161.9694 N.3     1  UNL1       -0.2711
      2 C         143.8616  138.6947  161.0576 C.3     1  UNL1        0.0933
      3 C         142.8550  138.3765  159.9921 C.3     1  UNL1        0.1035
      4 C         141.7497  138.8202  160.9039 C.3     1  UNL1        0.0933
      5 C         142.5468  140.7544  166.1639 C.3     1  UNL1        0.1232
      6 O         142.9350  141.9741  166.9462 O.3     1  UNL1       -0.3812
      7 C         141.9866  139.3979  165.8540 C.3     1  UNL1        0.0341
      8 C         142.0565  138.8592  164.4558 C.3     1  UNL1        0.0188
      9 C         142.6864  139.6771  163.3676 C.3     1  UNL1        0.0578
     10 C         143.2466  141.0336  163.6775 C.3     1  UNL1        0.0188
     11 C         143.1768  141.5723  165.0757 C.3     1  UNL1        0.0341
     12 H         142.6704  141.8618  167.8726 H       1  UNL1        0.2107
     13 C         142.4800  139.2846  169.8498 C.ar    1  UNL1        0.2247
     14 C         141.0614  139.5717  170.2437 C.ar    1  UNL1        0.0577
     15 C         140.1380  140.2529  169.2778 C.ar    1  UNL1        0.0061
     16 C         140.6330  140.6472  167.9179 C.ar    1  UNL1        0.0173
     17 C         142.0516  140.3602  167.5239 C.ar    1  UNL1        0.0861
     18 N         142.9751  139.6789  168.4899 N.ar    1  UNL1       -0.2137
     19 C         143.7247  137.1480  170.6468 C.3     1  UNL1        0.2542
     20 O         143.4035  138.6034  170.8157 O.3     1  UNL1       -0.4561
     21 N         142.9248  137.8378  158.5939 N.am    1  UNL1       -0.3018
     22 C         143.2534  138.7540  157.4527 C.2     1  UNL1        0.2426
     23 O         143.5123  140.2090  157.7095 O.2     1  UNL1       -0.2733
     24 H         142.7549  136.8828  158.4252 H       1  UNL1        0.1495
     25 C         143.3232  138.2153  156.0544 C.3     1  UNL1        0.1759
     26 N         143.6888  136.7793  155.8213 N.am    1  UNL1       -0.2931
     27 C         142.6192  135.7280  155.7940 C.2     1  UNL1        0.2462
     28 O         141.1840  136.1128  155.9997 O.2     1  UNL1       -0.2701
     29 H         144.6307  136.5268  155.6863 H       1  UNL1        0.1502
     30 C         142.9848  134.2921  155.5609 C.ar    1  UNL1        0.0533
     31 C         142.6001  133.6191  154.2767 C.ar    1  UNL1        0.0045
     32 C         142.9657  132.1831  154.0437 C.ar    1  UNL1        0.0001
     33 C         143.7159  131.4201  155.0949 C.ar    1  UNL1        0.0039
     34 C         144.1006  132.0931  156.3791 C.ar    1  UNL1        0.0716
     35 C         143.7350  133.5290  156.6121 C.ar    1  UNL1        0.0084
     36 C         144.8509  131.3300  157.4302 C.3     1  UNL1        0.4186
     37 F         145.6011  130.5670  158.4813 F       1  UNL1       -0.1659
     38 F         144.8450  130.1142  156.5518 F       1  UNL1       -0.1659
     39 F         144.8567  132.5459  158.3086 F       1  UNL1       -0.1659
@<TRIPOS>BOND
     1    19    20    1
     2    20    13    1
     3    13    14   ar
     4    14    15   ar
     5    15    16   ar
     6    16    17   ar
     7    17     5    1
     8     5     6    1
     9     5     7    1
    10     7     8    1
    11     8     9    1
    12     9     1    1
    13     1     2    1
    14     2     3    1
    15     3    21    1
    16    21    22   am
    17    22    23    2
    18    22    25    1
    19    25    26    1
    20    26    27   am
    21    27    28    2
    22    27    30    1
    23    30    31   ar
    24    31    32   ar
    25    32    33   ar
    26    33    34   ar
    27    34    36    1
    28    36    37    1
    29    36    38    1
    30    36    39    1
    31    34    35   ar
    32     3     4    1
    33     9    10    1
    34    10    11    1
    35    17    18   ar
    36    18    13   ar
    37    11     5    1
    38     4     1    1
    39    35    30   ar
    40     6    12    1
    41    21    24    1
    42    26    29    1
@<TRIPOS>MOLECULE
*****
 39 42 0 0 0
SMALL
GASTEIGER

@<TRIPOS>ATOM
      1 N         143.0398  140.0141  159.1843 N.3     1  UNL1       -0.2711
      2 C         143.8761  141.2024  159.5568 C.3     1  UNL1        0.0933
      3 C         142.9691  141.4763  160.7196 C.3     1  UNL1        0.1035
      4 C         142.1329  140.2880  160.3472 C.3     1  UNL1        0.0933
      5 C         143.1899  136.9123  155.9277 C.3     1  UNL1        0.1232
      6 O         143.5274  136.7908  154.4712 O.3     1  UNL1       -0.3812
      7 C         142.7618  136.5258  157.3123 C.3     1  UNL1        0.0341
      8 C         142.7118  137.5597  158.3979 C.3     1  UNL1        0.0188
      9 C         143.0899  138.9802  158.0988 C.3     1  UNL1        0.0578
     10 C         143.5180  139.3666  156.7141 C.3     1  UNL1        0.0188
     11 C         143.5680  138.3327  155.6286 C.3     1  UNL1        0.0341
     12 H         143.4024  135.8722  154.1859 H       1  UNL1        0.2107
     13 C         143.2828  132.9777  156.4381 C.ar    1  UNL1        0.2247
     14 C         142.4074  132.5244  155.3076 C.ar    1  UNL1        0.0577
     15 C         141.7928  133.5338  154.3838 C.ar    1  UNL1        0.0061
     16 C         142.0536  134.9964  154.5905 C.ar    1  UNL1        0.0173
     17 C         142.9291  135.4496  155.7210 C.ar    1  UNL1        0.0861
     18 N         143.5437  134.4403  156.6448 N.ar    1  UNL1       -0.2137
     19 C         145.2414  132.2320  157.9737 C.3     1  UNL1        0.2542
     20 O         143.8975  131.9683  157.3620 O.3     1  UNL1       -0.4561
     21 N         142.9190  142.5103  161.8052 N.am    1  UNL1       -0.3018
     22 C         144.0420  142.6143  162.7941 C.2     1  UNL1        0.2426
     23 O         145.2150  141.6845  162.6976 O.2     1  UNL1       -0.2733
     24 H         142.1491  143.1206  161.8686 H       1  UNL1        0.1495
     25 C         143.9919  143.6483  163.8798 C.3     1  UNL1        0.1759
     26 N         143.7897  143.2294  165.3057 N.am    1  UNL1       -0.2931
     27 C         142.4886  142.6150  165.7297 C.2     1  UNL1        0.2462
     28 O         141.3897  142.4197  164.7275 O.2     1  UNL1       -0.2701
     29 H         144.5110  143.3576  165.9635 H       1  UNL1        0.1502
     30 C         142.2864  142.1961  167.1557 C.ar    1  UNL1        0.0533
     31 C         143.4178  142.2988  168.1352 C.ar    1  UNL1        0.0045
     32 C         143.2155  141.8798  169.5612 C.ar    1  UNL1        0.0001
     33 C         141.8819  141.3581  170.0077 C.ar    1  UNL1        0.0039
     34 C         140.7505  141.2554  169.0282 C.ar    1  UNL1        0.0716
     35 C         140.9528  141.6744  167.6022 C.ar    1  UNL1        0.0084
     36 C         139.4169  140.7338  169.4747 C.3     1  UNL1        0.4186
     37 F         138.0833  140.2121  169.9213 F       1  UNL1       -0.1659
     38 F         139.2800  141.8916  170.4184 F       1  UNL1       -0.1659
     39 F         139.5539  139.5759  168.5311 F       1  UNL1       -0.1659
@<TRIPOS>BOND
     1    19    20    1
     2    20    13    1
     3    13    14   ar
     4    14    15   ar
     5    15    16   ar
     6    16    17   ar
     7    17     5    1
     8     5     6    1
     9     5     7    1
    10     7     8    1
    11     8     9    1
    12     9     1    1
    13     1     2    1
    14     2     3    1
    15     3    21    1
    16    21    22   am
    17    22    23    2
    18    22    25    1
    19    25    26    1
    20    26    27   am
    21    27    28    2
    22    27    30    1
    23    30    31   ar
    24    31    32   ar
    25    32    33   ar
    26    33    34   ar
    27    34    36    1
    28    36    37    1
    29    36    38    1
    30    36    39    1
    31    34    35   ar
    32     3     4    1
    33     9    10    1
    34    10    11    1
    35    17    18   ar
    36    18    13   ar
    37    11     5    1
    38     4     1    1
    39    35    30   ar
    40     6    12    1
    41    21    24    1
    42    26    29    1
