@<TRIPOS>MOLECULE
*****
 30 33 0 0 0
SMALL
GASTEIGER

@<TRIPOS>ATOM
      1 C         142.1277  138.4738  163.8970 C.ar    1  UNL1        0.1453
      2 C         141.0342  137.6233  163.3217 C.ar    1  UNL1        0.0372
      3 C         140.5077  137.9078  161.9462 C.ar    1  UNL1        0.0002
      4 C         141.0747  139.0428  161.1461 C.ar    1  UNL1       -0.0059
      5 C         142.1682  139.8933  161.7214 C.ar    1  UNL1        0.0002
      6 C         142.6947  139.6089  163.0968 C.ar    1  UNL1        0.0372
      7 O         142.6542  138.1894  165.2724 O.3     1  UNL1       -0.4535
      8 C         141.2205  140.6199  168.7777 C.ar    1  UNL1        0.1470
      9 C         142.5042  139.8499  168.8738 C.ar    1  UNL1        0.0403
     10 C         142.9821  139.0397  167.7054 C.ar    1  UNL1        0.0406
     11 C         142.1763  138.9995  166.4409 C.ar    1  UNL1        0.1455
     12 C         140.8926  139.7695  166.3448 C.ar    1  UNL1        0.0406
     13 C         140.4147  140.5797  167.5132 C.ar    1  UNL1        0.0403
     14 O         140.7426  141.4300  169.9462 O.3     1  UNL1       -0.4045
     15 F         140.3361  144.3880  169.6545 F       1  UNL1       -0.1328
     16 C         140.5393  142.9090  169.8004 C.3     1  UNL1        0.5753
     17 F         139.2239  142.7984  170.5127 F       1  UNL1       -0.1328
     18 F         141.8548  143.0196  169.0881 F       1  UNL1       -0.1328
     19 C         140.5482  139.3273  159.7707 C.3     1  UNL1        0.0992
     20 N         140.9318  138.4413  158.6226 N.3     1  UNL1       -0.2688
     21 C         142.3443  137.9543  158.4905 C.3     1  UNL1        0.0748
     22 C         142.7279  137.0682  157.3424 C.3     1  UNL1        0.0446
     23 C         141.6988  136.6693  156.3266 C.3     1  UNL1        0.0954
     24 C         143.1114  136.1823  156.1944 C.3     1  UNL1        0.0274
     25 C         143.4949  135.2963  155.0465 C.3     1  UNL1        0.0050
     26 C         142.4658  134.8973  154.0306 C.3     1  UNL1        0.0321
     27 C         141.0533  135.3843  154.1628 C.3     1  UNL1        0.1419
     28 O         140.6698  136.2703  155.3108 O.3     1  UNL1       -0.3584
     29 C         140.2862  137.1563  156.4588 C.3     1  UNL1        0.0446
     30 C         139.9027  138.0423  157.6068 C.3     1  UNL1        0.0748
@<TRIPOS>BOND
     1    15    16    1
     2    16    17    1
     3    16    18    1
     4    16    14    1
     5    14     8    1
     6     8     9   ar
     7     9    10   ar
     8    10    11   ar
     9    11     7    1
    10     7     1    1
    11     1     2   ar
    12     2     3   ar
    13     3     4   ar
    14     4    19    1
    15    19    20    1
    16    20    21    1
    17    21    22    1
    18    22    23    1
    19    23    24    1
    20    24    25    1
    21    25    26    1
    22    26    27    1
    23    27    28    1
    24    23    29    1
    25    29    30    1
    26     4     5   ar
    27     5     6   ar
    28    11    12   ar
    29    12    13   ar
    30    13     8   ar
    31     6     1   ar
    32    30    20    1
    33    28    23    1
@<TRIPOS>MOLECULE
*****
 30 33 0 0 0
SMALL
GASTEIGER

@<TRIPOS>ATOM
      1 C         138.9250  139.1410  160.9696 C.ar    1  UNL1        0.1453
      2 C         139.4976  137.9072  161.6020 C.ar    1  UNL1        0.0372
      3 C         139.3873  137.7039  163.0841 C.ar    1  UNL1        0.0002
      4 C         138.7044  138.7343  163.9337 C.ar    1  UNL1       -0.0059
      5 C         138.1319  139.9681  163.3013 C.ar    1  UNL1        0.0002
      6 C         138.2421  140.1715  161.8193 C.ar    1  UNL1        0.0372
      7 O         139.0353  139.3444  159.4875 O.3     1  UNL1       -0.4535
      8 C         142.4717  137.5315  157.2172 C.ar    1  UNL1        0.1470
      9 C         142.7376  138.4379  158.3823 C.ar    1  UNL1        0.0403
     10 C         141.5921  139.0422  159.1391 C.ar    1  UNL1        0.0406
     11 C         140.1808  138.7401  158.7308 C.ar    1  UNL1        0.1455
     12 C         139.9149  137.8336  157.5656 C.ar    1  UNL1        0.0406
     13 C         141.0604  137.2293  156.8089 C.ar    1  UNL1        0.0403
     14 O         143.6172  136.9272  156.4604 O.3     1  UNL1       -0.4045
     15 F         143.5914  134.0051  155.7816 F       1  UNL1       -0.1328
     16 C         143.6043  135.4662  156.1210 C.3     1  UNL1        0.5753
     17 F         143.6995  135.8042  154.6627 F       1  UNL1       -0.1328
     18 F         143.5091  135.1282  157.5793 F       1  UNL1       -0.1328
     19 C         138.5941  138.5310  165.4157 C.3     1  UNL1        0.0992
     20 N         139.4346  139.3503  166.3498 N.3     1  UNL1       -0.2688
     21 C         140.7823  139.8412  165.9109 C.3     1  UNL1        0.0748
     22 C         141.6228  140.6605  166.8450 C.3     1  UNL1        0.0446
     23 C         141.1155  140.9888  168.2179 C.3     1  UNL1        0.0954
     24 C         142.4632  141.4798  167.7791 C.3     1  UNL1        0.0274
     25 C         143.3036  142.2990  168.7132 C.3     1  UNL1        0.0050
     26 C         142.7963  142.6273  170.0861 C.3     1  UNL1        0.0321
     27 C         141.4486  142.1363  170.5249 C.3     1  UNL1        0.1419
     28 O         140.6082  141.3171  169.5909 O.3     1  UNL1       -0.3584
     29 C         139.7677  140.4978  168.6568 C.3     1  UNL1        0.0446
     30 C         138.9273  139.6785  167.7227 C.3     1  UNL1        0.0748
@<TRIPOS>BOND
     1    15    16    1
     2    16    17    1
     3    16    18    1
     4    16    14    1
     5    14     8    1
     6     8     9   ar
     7     9    10   ar
     8    10    11   ar
     9    11     7    1
    10     7     1    1
    11     1     2   ar
    12     2     3   ar
    13     3     4   ar
    14     4    19    1
    15    19    20    1
    16    20    21    1
    17    21    22    1
    18    22    23    1
    19    23    24    1
    20    24    25    1
    21    25    26    1
    22    26    27    1
    23    27    28    1
    24    23    29    1
    25    29    30    1
    26     4     5   ar
    27     5     6   ar
    28    11    12   ar
    29    12    13   ar
    30    13     8   ar
    31     6     1   ar
    32    30    20    1
    33    28    23    1
@<TRIPOS>MOLECULE
*****
 30 33 0 0 0
SMALL
GASTEIGER

@<TRIPOS>ATOM
      1 C         140.3378  138.7319  158.6633 C.ar    1  UNL1        0.1453
      2 C         139.6470  138.1297  157.4758 C.ar    1  UNL1        0.0372
      3 C         140.4155  137.2673  156.5187 C.ar    1  UNL1        0.0002
      4 C         141.8747  137.0072  156.7493 C.ar    1  UNL1       -0.0059
      5 C         142.5654  137.6094  157.9368 C.ar    1  UNL1        0.0002
      6 C         141.7970  138.4717  158.8938 C.ar    1  UNL1        0.0372
      7 O         139.5694  139.5942  159.6203 O.3     1  UNL1       -0.4535
      8 C         139.5866  138.6423  164.0185 C.ar    1  UNL1        0.1470
      9 C         140.2958  139.8633  163.5126 C.ar    1  UNL1        0.0403
     10 C         140.2901  140.1806  162.0466 C.ar    1  UNL1        0.0406
     11 C         139.5751  139.2769  161.0864 C.ar    1  UNL1        0.1455
     12 C         138.8658  138.0558  161.5922 C.ar    1  UNL1        0.0406
     13 C         138.8716  137.7385  163.0583 C.ar    1  UNL1        0.0403
     14 O         139.5923  138.3249  165.4845 O.3     1  UNL1       -0.4045
     15 F         137.0893  138.6657  167.1028 F       1  UNL1       -0.1328
     16 C         138.3408  138.4953  166.2936 C.3     1  UNL1        0.5753
     17 F         138.6100  139.9671  166.4000 F       1  UNL1       -0.1328
     18 F         138.0717  137.0235  166.1873 F       1  UNL1       -0.1328
     19 C         142.6431  136.1449  155.7922 C.3     1  UNL1        0.0992
     20 N         142.8331  134.6858  156.0840 N.3     1  UNL1       -0.2688
     21 C         141.9907  133.6642  155.3794 C.3     1  UNL1        0.0748
     22 C         142.1807  132.2051  155.6711 C.3     1  UNL1        0.0446
     23 C         143.2132  131.7678  156.6674 C.3     1  UNL1        0.0954
     24 C         142.3708  130.7461  155.9628 C.3     1  UNL1        0.0274
     25 C         142.5609  129.2871  156.2546 C.3     1  UNL1        0.0050
     26 C         143.5934  128.8498  157.2509 C.3     1  UNL1        0.0321
     27 C         144.4358  129.8714  157.9555 C.3     1  UNL1        0.1419
     28 O         144.2457  131.3304  157.6638 O.3     1  UNL1       -0.3584
     29 C         144.0557  132.7895  157.3720 C.3     1  UNL1        0.0446
     30 C         143.8656  134.2485  157.0803 C.3     1  UNL1        0.0748
@<TRIPOS>BOND
     1    15    16    1
     2    16    17    1
     3    16    18    1
     4    16    14    1
     5    14     8    1
     6     8     9   ar
     7     9    10   ar
     8    10    11   ar
     9    11     7    1
    10     7     1    1
    11     1     2   ar
    12     2     3   ar
    13     3     4   ar
    14     4    19    1
    15    19    20    1
    16    20    21    1
    17    21    22    1
    18    22    23    1
    19    23    24    1
    20    24    25    1
    21    25    26    1
    22    26    27    1
    23    27    28    1
    24    23    29    1
    25    29    30    1
    26     4     5   ar
    27     5     6   ar
    28    11    12   ar
    29    12    13   ar
    30    13     8   ar
    31     6     1   ar
    32    30    20    1
    33    28    23    1
@<TRIPOS>MOLECULE
*****
 30 33 0 0 0
SMALL
GASTEIGER

@<TRIPOS>ATOM
      1 C         139.5212  138.0149  162.2715 C.ar    1  UNL1        0.1453
      2 C         138.8734  138.5443  161.0264 C.ar    1  UNL1        0.0372
      3 C         139.6941  138.7679  159.7909 C.ar    1  UNL1        0.0002
      4 C         141.1626  138.4622  159.8004 C.ar    1  UNL1       -0.0059
      5 C         141.8104  137.9328  161.0455 C.ar    1  UNL1        0.0002
      6 C         140.9897  137.7091  162.2810 C.ar    1  UNL1        0.0372
      7 O         138.7005  137.7913  163.5069 O.3     1  UNL1       -0.4535
      8 C         139.5127  140.2073  167.2155 C.ar    1  UNL1        0.1470
      9 C         138.5048  139.0970  167.2495 C.ar    1  UNL1        0.0403
     10 C         138.2341  138.2916  166.0133 C.ar    1  UNL1        0.0406
     11 C         138.9713  138.5966  164.7431 C.ar    1  UNL1        0.1455
     12 C         139.9792  139.7069  164.7091 C.ar    1  UNL1        0.0406
     13 C         140.2500  140.5122  165.9453 C.ar    1  UNL1        0.0403
     14 O         139.7835  141.0126  168.4517 O.3     1  UNL1       -0.4045
     15 F         139.7900  139.6792  171.1391 F       1  UNL1       -0.1328
     16 C         139.7867  140.3459  169.7953 C.3     1  UNL1        0.5753
     17 F         138.5862  141.1503  170.1973 F       1  UNL1       -0.1328
     18 F         140.9872  139.5415  169.3933 F       1  UNL1       -0.1328
     19 C         141.9832  138.6858  158.5650 C.3     1  UNL1        0.0992
     20 N         141.9048  137.7127  157.4261 N.3     1  UNL1       -0.2688
     21 C         142.7356  136.4640  157.4480 C.3     1  UNL1        0.0748
     22 C         142.6571  135.4908  156.3091 C.3     1  UNL1        0.0446
     23 C         141.7478  135.7665  155.1484 C.3     1  UNL1        0.0954
     24 C         142.5786  134.5178  155.1703 C.3     1  UNL1        0.0274
     25 C         142.5001  133.5447  154.0315 C.3     1  UNL1        0.0050
     26 C         141.5908  133.8203  152.8708 C.3     1  UNL1        0.0321
     27 C         140.7601  135.0690  152.8489 C.3     1  UNL1        0.1419
     28 O         140.8385  136.0421  153.9877 O.3     1  UNL1       -0.3584
     29 C         140.9170  137.0152  155.1266 C.3     1  UNL1        0.0446
     30 C         140.9955  137.9883  156.2654 C.3     1  UNL1        0.0748
@<TRIPOS>BOND
     1    15    16    1
     2    16    17    1
     3    16    18    1
     4    16    14    1
     5    14     8    1
     6     8     9   ar
     7     9    10   ar
     8    10    11   ar
     9    11     7    1
    10     7     1    1
    11     1     2   ar
    12     2     3   ar
    13     3     4   ar
    14     4    19    1
    15    19    20    1
    16    20    21    1
    17    21    22    1
    18    22    23    1
    19    23    24    1
    20    24    25    1
    21    25    26    1
    22    26    27    1
    23    27    28    1
    24    23    29    1
    25    29    30    1
    26     4     5   ar
    27     5     6   ar
    28    11    12   ar
    29    12    13   ar
    30    13     8   ar
    31     6     1   ar
    32    30    20    1
    33    28    23    1
@<TRIPOS>MOLECULE
*****
 30 33 0 0 0
SMALL
GASTEIGER

@<TRIPOS>ATOM
      1 C         140.2583  138.9385  158.9804 C.ar    1  UNL1        0.1453
      2 C         139.6972  138.2924  157.7485 C.ar    1  UNL1        0.0372
      3 C         140.5877  137.4799  156.8558 C.ar    1  UNL1        0.0002
      4 C         142.0393  137.3134  157.1951 C.ar    1  UNL1       -0.0059
      5 C         142.6004  137.9595  158.4270 C.ar    1  UNL1        0.0002
      6 C         141.7100  138.7720  159.3197 C.ar    1  UNL1        0.0372
      7 O         139.3679  139.7510  159.8731 O.3     1  UNL1       -0.4535
      8 C         138.6883  138.4774  164.1353 C.ar    1  UNL1        0.1470
      9 C         139.3556  137.5426  163.1705 C.ar    1  UNL1        0.0403
     10 C         139.5821  137.9671  161.7497 C.ar    1  UNL1        0.0406
     11 C         139.1414  139.3265  161.2938 C.ar    1  UNL1        0.1455
     12 C         138.4741  140.2613  162.2586 C.ar    1  UNL1        0.0406
     13 C         138.2476  139.8367  163.6793 C.ar    1  UNL1        0.0403
     14 O         138.4618  138.0529  165.5560 O.3     1  UNL1       -0.4045
     15 F         138.9643  139.9833  167.7967 F       1  UNL1       -0.1328
     16 C         138.7131  139.0181  166.6763 C.3     1  UNL1        0.5753
     17 F         140.1387  139.1619  166.2326 F       1  UNL1       -0.1328
     18 F         137.2875  138.8742  167.1200 F       1  UNL1       -0.1328
     19 C         142.9297  136.5009  156.3024 C.3     1  UNL1        0.0992
     20 N         142.7983  135.0069  156.2709 N.3     1  UNL1       -0.2688
     21 C         143.6729  134.1585  157.1457 C.3     1  UNL1        0.0748
     22 C         143.5416  132.6646  157.1141 C.3     1  UNL1        0.0446
     23 C         142.5356  132.0191  156.2078 C.3     1  UNL1        0.0954
     24 C         143.4102  131.1707  157.0826 C.3     1  UNL1        0.0274
     25 C         143.2788  129.6768  157.0510 C.3     1  UNL1        0.0050
     26 C         142.2728  129.0314  156.1447 C.3     1  UNL1        0.0321
     27 C         141.3983  129.8798  155.2700 C.3     1  UNL1        0.1419
     28 O         141.5297  131.3737  155.3015 O.3     1  UNL1       -0.3584
     29 C         141.6610  132.8676  155.3330 C.3     1  UNL1        0.0446
     30 C         141.7924  134.3615  155.3646 C.3     1  UNL1        0.0748
@<TRIPOS>BOND
     1    15    16    1
     2    16    17    1
     3    16    18    1
     4    16    14    1
     5    14     8    1
     6     8     9   ar
     7     9    10   ar
     8    10    11   ar
     9    11     7    1
    10     7     1    1
    11     1     2   ar
    12     2     3   ar
    13     3     4   ar
    14     4    19    1
    15    19    20    1
    16    20    21    1
    17    21    22    1
    18    22    23    1
    19    23    24    1
    20    24    25    1
    21    25    26    1
    22    26    27    1
    23    27    28    1
    24    23    29    1
    25    29    30    1
    26     4     5   ar
    27     5     6   ar
    28    11    12   ar
    29    12    13   ar
    30    13     8   ar
    31     6     1   ar
    32    30    20    1
    33    28    23    1
@<TRIPOS>MOLECULE
*****
 30 33 0 0 0
SMALL
GASTEIGER

@<TRIPOS>ATOM
      1 C         142.2767  136.7822  156.8238 C.ar    1  UNL1        0.1453
      2 C         140.8594  136.8199  156.3339 C.ar    1  UNL1        0.0372
      3 C         139.8497  137.6875  157.0252 C.ar    1  UNL1        0.0002
      4 C         140.2573  138.5173  158.2064 C.ar    1  UNL1       -0.0059
      5 C         141.6746  138.4797  158.6963 C.ar    1  UNL1        0.0002
      6 C         142.6842  137.6121  158.0050 C.ar    1  UNL1        0.0372
      7 O         143.2864  135.9147  156.1325 O.3     1  UNL1       -0.4535
      8 C         142.1590  131.7623  154.8148 C.ar    1  UNL1        0.1470
      9 C         142.2199  132.8766  153.8125 C.ar    1  UNL1        0.0403
     10 C         142.5957  134.2607  154.2518 C.ar    1  UNL1        0.0406
     11 C         142.9106  134.5305  155.6933 C.ar    1  UNL1        0.1455
     12 C         142.8497  133.4162  156.6955 C.ar    1  UNL1        0.0406
     13 C         142.4739  132.0321  156.2563 C.ar    1  UNL1        0.0403
     14 O         141.7832  130.3781  154.3755 O.3     1  UNL1       -0.4045
     15 F         139.2899  129.0921  155.4384 F       1  UNL1       -0.1328
     16 C         140.5366  129.7351  154.9069 C.3     1  UNL1        0.5753
     17 F         139.7025  130.7036  154.1219 F       1  UNL1       -0.1328
     18 F         141.3707  128.7667  155.6920 F       1  UNL1       -0.1328
     19 C         139.2476  139.3849  158.8977 C.3     1  UNL1        0.0992
     20 N         139.0675  139.2879  160.3837 N.3     1  UNL1       -0.2688
     21 C         139.1935  137.9598  161.0694 C.3     1  UNL1        0.0748
     22 C         139.0134  137.8629  162.5554 C.3     1  UNL1        0.0446
     23 C         138.7072  139.0941  163.3557 C.3     1  UNL1        0.0954
     24 C         138.8332  137.7660  164.0414 C.3     1  UNL1        0.0274
     25 C         138.6531  137.6691  165.5273 C.3     1  UNL1        0.0050
     26 C         138.3469  138.9003  166.3276 C.3     1  UNL1        0.0321
     27 C         138.2209  140.2284  165.6419 C.3     1  UNL1        0.1419
     28 O         138.4011  140.3253  164.1559 O.3     1  UNL1       -0.3584
     29 C         138.5812  140.4222  162.6699 C.3     1  UNL1        0.0446
     30 C         138.7613  140.5191  161.1839 C.3     1  UNL1        0.0748
@<TRIPOS>BOND
     1    15    16    1
     2    16    17    1
     3    16    18    1
     4    16    14    1
     5    14     8    1
     6     8     9   ar
     7     9    10   ar
     8    10    11   ar
     9    11     7    1
    10     7     1    1
    11     1     2   ar
    12     2     3   ar
    13     3     4   ar
    14     4    19    1
    15    19    20    1
    16    20    21    1
    17    21    22    1
    18    22    23    1
    19    23    24    1
    20    24    25    1
    21    25    26    1
    22    26    27    1
    23    27    28    1
    24    23    29    1
    25    29    30    1
    26     4     5   ar
    27     5     6   ar
    28    11    12   ar
    29    12    13   ar
    30    13     8   ar
    31     6     1   ar
    32    30    20    1
    33    28    23    1
@<TRIPOS>MOLECULE
*****
 30 33 0 0 0
SMALL
GASTEIGER

@<TRIPOS>ATOM
      1 C         143.2407  138.6458  164.4386 C.ar    1  UNL1        0.1453
      2 C         142.4323  137.9573  163.3792 C.ar    1  UNL1        0.0372
      3 C         142.6280  138.3148  161.9356 C.ar    1  UNL1        0.0002
      4 C         143.6322  139.3608  161.5515 C.ar    1  UNL1       -0.0059
      5 C         144.4406  140.0492  162.6109 C.ar    1  UNL1        0.0002
      6 C         144.2449  139.6918  164.0545 C.ar    1  UNL1        0.0372
      7 O         143.0450  138.2883  165.8822 O.3     1  UNL1       -0.4535
      8 C         140.5645  140.9398  168.5405 C.ar    1  UNL1        0.1470
      9 C         140.0677  140.5726  167.1737 C.ar    1  UNL1        0.0403
     10 C         140.8946  139.6887  166.2876 C.ar    1  UNL1        0.0406
     11 C         142.2182  139.1721  166.7683 C.ar    1  UNL1        0.1455
     12 C         142.7149  139.5394  168.1351 C.ar    1  UNL1        0.0406
     13 C         141.8881  140.4232  169.0212 C.ar    1  UNL1        0.0403
     14 O         139.7376  141.8236  169.4266 O.3     1  UNL1       -0.4045
     15 F         140.6435  144.6212  170.0208 F       1  UNL1       -0.1328
     16 C         140.1906  143.2224  169.7237 C.3     1  UNL1        0.5753
     17 F         140.8090  143.3117  168.3601 F       1  UNL1       -0.1328
     18 F         139.5721  143.1330  171.0873 F       1  UNL1       -0.1328
     19 C         143.8279  139.7182  160.1079 C.3     1  UNL1        0.0992
     20 N         143.1951  140.9586  159.5500 N.3     1  UNL1       -0.2688
     21 C         141.7128  141.0087  159.3260 C.3     1  UNL1        0.0748
     22 C         141.0801  142.2491  158.7681 C.3     1  UNL1        0.0446
     23 C         141.9297  143.4392  158.4340 C.3     1  UNL1        0.0954
     24 C         140.4474  143.4894  158.2101 C.3     1  UNL1        0.0274
     25 C         139.8148  144.7296  157.6521 C.3     1  UNL1        0.0050
     26 C         140.6644  145.9198  157.3181 C.3     1  UNL1        0.0321
     27 C         142.1467  145.8697  157.5420 C.3     1  UNL1        0.1419
     28 O         142.7794  144.6294  158.1000 O.3     1  UNL1       -0.3584
     29 C         143.4121  143.3891  158.6580 C.3     1  UNL1        0.0446
     30 C         144.0448  142.1488  159.2159 C.3     1  UNL1        0.0748
@<TRIPOS>BOND
     1    15    16    1
     2    16    17    1
     3    16    18    1
     4    16    14    1
     5    14     8    1
     6     8     9   ar
     7     9    10   ar
     8    10    11   ar
     9    11     7    1
    10     7     1    1
    11     1     2   ar
    12     2     3   ar
    13     3     4   ar
    14     4    19    1
    15    19    20    1
    16    20    21    1
    17    21    22    1
    18    22    23    1
    19    23    24    1
    20    24    25    1
    21    25    26    1
    22    26    27    1
    23    27    28    1
    24    23    29    1
    25    29    30    1
    26     4     5   ar
    27     5     6   ar
    28    11    12   ar
    29    12    13   ar
    30    13     8   ar
    31     6     1   ar
    32    30    20    1
    33    28    23    1
@<TRIPOS>MOLECULE
*****
 30 33 0 0 0
SMALL
GASTEIGER

@<TRIPOS>ATOM
      1 C         138.3537  138.9844  165.4781 C.ar    1  UNL1        0.1453
      2 C         138.0828  140.1752  164.6073 C.ar    1  UNL1        0.0372
      3 C         138.3775  140.1124  163.1378 C.ar    1  UNL1        0.0002
      4 C         138.9432  138.8587  162.5393 C.ar    1  UNL1       -0.0059
      5 C         139.2142  137.6678  163.4102 C.ar    1  UNL1        0.0002
      6 C         138.9194  137.7306  164.8796 C.ar    1  UNL1        0.0372
      7 O         138.0590  139.0472  166.9475 O.3     1  UNL1       -0.4535
      8 C         140.9608  141.0542  169.7406 C.ar    1  UNL1        0.1470
      9 C         141.3297  140.8407  168.3025 C.ar    1  UNL1        0.0403
     10 C         140.3624  140.1717  167.3714 C.ar    1  UNL1        0.0406
     11 C         139.0263  139.7162  167.8786 C.ar    1  UNL1        0.1455
     12 C         138.6574  139.9297  169.3167 C.ar    1  UNL1        0.0406
     13 C         139.6247  140.5987  170.2477 C.ar    1  UNL1        0.0403
     14 O         141.9281  141.7232  170.6717 O.3     1  UNL1       -0.4045
     15 F         144.6056  142.6224  169.6605 F       1  UNL1       -0.1328
     16 C         143.2668  142.1728  170.1661 C.3     1  UNL1        0.5753
     17 F         142.7452  143.5725  170.0296 F       1  UNL1       -0.1328
     18 F         143.7885  140.7731  170.3026 F       1  UNL1       -0.1328
     19 C         139.2379  138.7959  161.0699 C.3     1  UNL1        0.0992
     20 N         139.6726  140.0314  160.3386 N.3     1  UNL1       -0.2688
     21 C         138.6893  140.7901  159.4976 C.3     1  UNL1        0.0748
     22 C         139.1240  142.0256  158.7663 C.3     1  UNL1        0.0446
     23 C         140.5420  142.5023  158.8761 C.3     1  UNL1        0.0954
     24 C         139.5587  143.2610  158.0351 C.3     1  UNL1        0.0274
     25 C         139.9934  144.4964  157.3039 C.3     1  UNL1        0.0050
     26 C         141.4115  144.9731  157.4137 C.3     1  UNL1        0.0321
     27 C         142.3947  144.2143  158.2548 C.3     1  UNL1        0.1419
     28 O         141.9600  142.9789  158.9860 O.3     1  UNL1       -0.3584
     29 C         141.5253  141.7434  159.7172 C.3     1  UNL1        0.0446
     30 C         141.0906  140.5080  160.4485 C.3     1  UNL1        0.0748
@<TRIPOS>BOND
     1    15    16    1
     2    16    17    1
     3    16    18    1
     4    16    14    1
     5    14     8    1
     6     8     9   ar
     7     9    10   ar
     8    10    11   ar
     9    11     7    1
    10     7     1    1
    11     1     2   ar
    12     2     3   ar
    13     3     4   ar
    14     4    19    1
    15    19    20    1
    16    20    21    1
    17    21    22    1
    18    22    23    1
    19    23    24    1
    20    24    25    1
    21    25    26    1
    22    26    27    1
    23    27    28    1
    24    23    29    1
    25    29    30    1
    26     4     5   ar
    27     5     6   ar
    28    11    12   ar
    29    12    13   ar
    30    13     8   ar
    31     6     1   ar
    32    30    20    1
    33    28    23    1
@<TRIPOS>MOLECULE
*****
 30 33 0 0 0
SMALL
GASTEIGER

@<TRIPOS>ATOM
      1 C         138.1239  140.2982  162.2024 C.ar    1  UNL1        0.1453
      2 C         138.1811  141.5596  161.3926 C.ar    1  UNL1        0.0372
      3 C         138.8609  141.5622  160.0554 C.ar    1  UNL1        0.0002
      4 C         139.4833  140.3035  159.5280 C.ar    1  UNL1       -0.0059
      5 C         139.4261  139.0421  160.3378 C.ar    1  UNL1        0.0002
      6 C         138.7464  139.0395  161.6749 C.ar    1  UNL1        0.0372
      7 O         137.4442  140.2955  163.5395 O.3     1  UNL1       -0.4535
      8 C         139.8772  140.7193  167.3012 C.ar    1  UNL1        0.1470
      9 C         139.9216  141.7927  166.2544 C.ar    1  UNL1        0.0403
     10 C         139.1106  141.6514  165.0005 C.ar    1  UNL1        0.0406
     11 C         138.2552  140.4368  164.7934 C.ar    1  UNL1        0.1455
     12 C         138.2108  139.3634  165.8402 C.ar    1  UNL1        0.0406
     13 C         139.0219  139.5047  167.0941 C.ar    1  UNL1        0.0403
     14 O         140.6883  140.8605  168.5551 O.3     1  UNL1       -0.4045
     15 F         139.7162  139.6372  171.1161 F       1  UNL1       -0.1328
     16 C         140.2022  140.2489  169.8356 C.3     1  UNL1        0.5753
     17 F         139.1139  141.2781  169.9141 F       1  UNL1       -0.1328
     18 F         141.2906  139.2197  169.7571 F       1  UNL1       -0.1328
     19 C         140.1630  140.3062  158.1909 C.3     1  UNL1        0.0992
     20 N         140.7201  139.0313  157.6302 N.3     1  UNL1       -0.2688
     21 C         139.9264  138.2407  156.6328 C.3     1  UNL1        0.0748
     22 C         140.4835  136.9658  156.0720 C.3     1  UNL1        0.0446
     23 C         141.8343  136.4815  156.5088 C.3     1  UNL1        0.0954
     24 C         141.0406  135.6909  155.5114 C.3     1  UNL1        0.0274
     25 C         141.5977  134.4161  154.9507 C.3     1  UNL1        0.0050
     26 C         142.9485  133.9319  155.3874 C.3     1  UNL1        0.0321
     27 C         143.7423  134.7225  156.3848 C.3     1  UNL1        0.1419
     28 O         143.1852  135.9973  156.9455 O.3     1  UNL1       -0.3584
     29 C         142.6281  137.2722  157.5062 C.3     1  UNL1        0.0446
     30 C         142.0710  138.5470  158.0669 C.3     1  UNL1        0.0748
@<TRIPOS>BOND
     1    15    16    1
     2    16    17    1
     3    16    18    1
     4    16    14    1
     5    14     8    1
     6     8     9   ar
     7     9    10   ar
     8    10    11   ar
     9    11     7    1
    10     7     1    1
    11     1     2   ar
    12     2     3   ar
    13     3     4   ar
    14     4    19    1
    15    19    20    1
    16    20    21    1
    17    21    22    1
    18    22    23    1
    19    23    24    1
    20    24    25    1
    21    25    26    1
    22    26    27    1
    23    27    28    1
    24    23    29    1
    25    29    30    1
    26     4     5   ar
    27     5     6   ar
    28    11    12   ar
    29    12    13   ar
    30    13     8   ar
    31     6     1   ar
    32    30    20    1
    33    28    23    1
