@<TRIPOS>MOLECULE
*****
 26 28 0 0 0
SMALL
GASTEIGER

@<TRIPOS>ATOM
      1 C         137.8995  138.1570  166.4664 C.3     1  UNL1        0.0312
      2 C         138.8734  139.1720  165.9459 C.3     1  UNL1        0.1285
      3 N         138.6522  139.8043  164.6038 N.ar    1  UNL1       -0.2908
      4 C         138.4965  139.0768  163.3013 C.ar    1  UNL1        0.1800
      5 N         138.2959  140.0980  162.2211 N.ar    1  UNL1       -0.2195
      6 C         138.3276  141.4567  162.8560 C.ar    1  UNL1        0.1481
      7 C         138.1844  142.8357  162.2834 C.ar    1  UNL1        0.1487
      8 N         137.9642  143.0172  160.8108 N.pl3   1  UNL1       -0.3413
      9 N         138.2615  144.0332  163.1834 N.ar    1  UNL1       -0.2006
     10 C         138.4817  143.8517  164.6560 C.ar    1  UNL1        0.2264
     11 CL        138.5587  145.0492  165.5561 Cl      1  UNL1       -0.0409
     12 N         138.6249  142.4726  165.2286 N.ar    1  UNL1       -0.1976
     13 C         138.5478  141.2752  164.3286 C.ar    1  UNL1        0.1682
     14 H         137.9136  142.2313  160.2201 H       1  UNL1        0.1438
     15 H         137.8702  143.9223  160.4350 H       1  UNL1        0.1438
     16 C         140.0686  139.5548  166.7674 C.ar    1  UNL1        0.0827
     17 C         139.8814  140.2069  168.1053 C.ar    1  UNL1        0.0535
     18 C         141.0766  140.5896  168.9269 C.ar    1  UNL1        0.1416
     19 C         142.4590  140.3204  168.4106 C.ar    1  UNL1        0.0575
     20 C         142.6462  139.6684  167.0728 C.ar    1  UNL1        0.1016
     21 N         141.4510  139.2856  166.2512 N.ar    1  UNL1       -0.2461
     22 O         140.8894  141.2417  170.2647 O.3     1  UNL1       -0.4692
     23 C         141.2643  142.6813  170.4564 C.3     1  UNL1        0.2772
     24 C         140.5695  143.7491  169.6645 C.3     1  UNL1        0.3615
     25 F         140.1650  143.4861  168.2442 F       1  UNL1       -0.1942
     26 F         140.2791  145.0798  170.2929 F       1  UNL1       -0.1942
@<TRIPOS>BOND
     1     2     1    1
     2     2    16    1
     3    16    17   ar
     4    17    18   ar
     5    18    22    1
     6    22    23    1
     7    23    24    1
     8    24    25    1
     9    24    26    1
    10    18    19   ar
    11    19    20   ar
    12    20    21   ar
    13     2     3    1
    14     3     4   ar
    15     4     5   ar
    16     5     6   ar
    17     6     7   ar
    18     7     8    1
    19     7     9   ar
    20     9    10   ar
    21    10    11    1
    22    10    12   ar
    23    12    13   ar
    24    21    16   ar
    25    13     3   ar
    26    13     6   ar
    27     8    14    1
    28     8    15    1
@<TRIPOS>MOLECULE
*****
 26 28 0 0 0
SMALL
GASTEIGER

@<TRIPOS>ATOM
      1 C         139.2568  137.4821  163.8963 C.3     1  UNL1        0.0312
      2 C         138.8972  138.8480  164.4011 C.3     1  UNL1        0.1285
      3 N         138.8189  139.1057  165.8767 N.ar    1  UNL1       -0.2908
      4 C         137.7593  138.5927  166.8063 C.ar    1  UNL1        0.1800
      5 N         138.0720  139.0916  168.1859 N.ar    1  UNL1       -0.2195
      6 C         139.3249  139.9128  168.1090 C.ar    1  UNL1        0.1481
      7 C         140.1051  140.6537  169.1541 C.ar    1  UNL1        0.1487
      8 N         139.6435  140.6450  170.5813 N.pl3   1  UNL1       -0.3413
      9 N         141.3469  141.4035  168.7721 N.ar    1  UNL1       -0.2006
     10 C         141.8085  141.4122  167.3449 C.ar    1  UNL1        0.2264
     11 CL        143.0502  142.1618  166.9628 Cl      1  UNL1       -0.0409
     12 N         141.0283  140.6712  166.2997 N.ar    1  UNL1       -0.1976
     13 C         139.7865  139.9215  166.6818 C.ar    1  UNL1        0.1682
     14 H         138.8285  140.1530  170.8321 H       1  UNL1        0.1438
     15 H         140.1556  141.1314  171.2672 H       1  UNL1        0.1438
     16 C         138.6159  139.9563  163.4303 C.ar    1  UNL1        0.0827
     17 C         138.1999  141.3067  163.9337 C.ar    1  UNL1        0.0535
     18 C         137.9186  142.4150  162.9629 C.ar    1  UNL1        0.1416
     19 C         138.0532  142.1730  161.4886 C.ar    1  UNL1        0.0575
     20 C         138.4691  140.8226  160.9853 C.ar    1  UNL1        0.1016
     21 N         138.7504  139.7143  161.9561 N.ar    1  UNL1       -0.2461
     22 O         137.5026  143.7655  163.4662 O.3     1  UNL1       -0.4692
     23 C         138.5280  144.7046  164.0289 C.3     1  UNL1        0.2772
     24 C         138.8169  144.7051  165.5009 C.3     1  UNL1        0.3615
     25 F         139.7904  143.7184  166.0744 F       1  UNL1       -0.1942
     26 F         138.1325  145.6923  166.3992 F       1  UNL1       -0.1942
@<TRIPOS>BOND
     1     2     1    1
     2     2    16    1
     3    16    17   ar
     4    17    18   ar
     5    18    22    1
     6    22    23    1
     7    23    24    1
     8    24    25    1
     9    24    26    1
    10    18    19   ar
    11    19    20   ar
    12    20    21   ar
    13     2     3    1
    14     3     4   ar
    15     4     5   ar
    16     5     6   ar
    17     6     7   ar
    18     7     8    1
    19     7     9   ar
    20     9    10   ar
    21    10    11    1
    22    10    12   ar
    23    12    13   ar
    24    21    16   ar
    25    13     3   ar
    26    13     6   ar
    27     8    14    1
    28     8    15    1
@<TRIPOS>MOLECULE
*****
 26 28 0 0 0
SMALL
GASTEIGER

@<TRIPOS>ATOM
      1 C         138.5525  144.9118  165.5411 C.3     1  UNL1        0.0312
      2 C         139.2441  143.7060  164.9776 C.3     1  UNL1        0.1285
      3 N         138.6749  143.0068  163.7788 N.ar    1  UNL1       -0.2908
      4 C         138.1047  143.6694  162.5598 C.ar    1  UNL1        0.1800
      5 N         137.6534  142.5944  161.6162 N.ar    1  UNL1       -0.2195
      6 C         137.9445  141.2673  162.2519 C.ar    1  UNL1        0.1481
      7 C         137.7164  139.8598  161.7864 C.ar    1  UNL1        0.1487
      8 N         137.0850  139.6049  160.4498 N.pl3   1  UNL1       -0.3413
      9 N         138.1195  138.7070  162.6575 N.ar    1  UNL1       -0.2006
     10 C         138.7508  138.9619  163.9941 C.ar    1  UNL1        0.2264
     11 CL        139.1540  137.8093  164.8652 Cl      1  UNL1       -0.0409
     12 N         138.9790  140.3696  164.4596 N.ar    1  UNL1       -0.1976
     13 C         138.5759  141.5222  163.5885 C.ar    1  UNL1        0.1682
     14 H         136.8204  140.3614  159.8781 H       1  UNL1        0.1438
     15 H         136.9353  138.6810  160.1443 H       1  UNL1        0.1438
     16 C         140.5049  143.1993  165.6129 C.ar    1  UNL1        0.0827
     17 C         140.4698  142.6329  167.0015 C.ar    1  UNL1        0.0535
     18 C         141.7306  142.1262  167.6368 C.ar    1  UNL1        0.1416
     19 C         143.0265  142.1859  166.8836 C.ar    1  UNL1        0.0575
     20 C         143.0615  142.7523  165.4951 C.ar    1  UNL1        0.1016
     21 N         141.8007  143.2590  164.8598 N.ar    1  UNL1       -0.2461
     22 O         141.6956  141.5598  169.0253 O.3     1  UNL1       -0.4692
     23 C         140.6577  140.5416  169.3940 C.3     1  UNL1        0.2772
     24 C         139.3364  140.9845  169.9489 C.3     1  UNL1        0.3615
     25 F         139.1822  142.3699  170.5030 F       1  UNL1       -0.1942
     26 F         138.1694  140.0421  169.9498 F       1  UNL1       -0.1942
@<TRIPOS>BOND
     1     2     1    1
     2     2    16    1
     3    16    17   ar
     4    17    18   ar
     5    18    22    1
     6    22    23    1
     7    23    24    1
     8    24    25    1
     9    24    26    1
    10    18    19   ar
    11    19    20   ar
    12    20    21   ar
    13     2     3    1
    14     3     4   ar
    15     4     5   ar
    16     5     6   ar
    17     6     7   ar
    18     7     8    1
    19     7     9   ar
    20     9    10   ar
    21    10    11    1
    22    10    12   ar
    23    12    13   ar
    24    21    16   ar
    25    13     3   ar
    26    13     6   ar
    27     8    14    1
    28     8    15    1
@<TRIPOS>MOLECULE
*****
 26 28 0 0 0
SMALL
GASTEIGER

@<TRIPOS>ATOM
      1 C         144.8972  143.8319  165.6569 C.3     1  UNL1        0.0312
      2 C         143.8924  143.0108  164.9046 C.3     1  UNL1        0.1285
      3 N         143.2051  143.5844  163.7010 N.ar    1  UNL1       -0.2908
      4 C         143.8087  143.7541  162.3383 C.ar    1  UNL1        0.1800
      5 N         142.7702  144.3637  161.4440 N.ar    1  UNL1       -0.2195
      6 C         141.5248  144.5708  162.2540 C.ar    1  UNL1        0.1481
      7 C         140.1807  145.1357  161.9015 C.ar    1  UNL1        0.1487
      8 N         139.9119  145.6173  160.5066 N.pl3   1  UNL1       -0.3413
      9 N         139.1053  145.2191  162.9440 N.ar    1  UNL1       -0.2006
     10 C         139.3741  144.7375  164.3389 C.ar    1  UNL1        0.2264
     11 CL        138.2989  144.8208  165.3814 Cl      1  UNL1       -0.0409
     12 N         140.7183  144.1725  164.6914 N.ar    1  UNL1       -0.1976
     13 C         141.7936  144.0892  163.6489 C.ar    1  UNL1        0.1682
     14 H         140.6176  145.5626  159.8224 H       1  UNL1        0.1438
     15 H         139.0297  145.9881  160.2753 H       1  UNL1        0.1438
     16 C         143.5749  141.6159  165.3558 C.ar    1  UNL1        0.0827
     17 C         142.7529  141.3962  166.5912 C.ar    1  UNL1        0.0535
     18 C         142.4354  140.0014  167.0424 C.ar    1  UNL1        0.1416
     19 C         142.9398  138.8262  166.2583 C.ar    1  UNL1        0.0575
     20 C         143.7617  139.0461  165.0230 C.ar    1  UNL1        0.1016
     21 N         144.0793  140.4409  164.5717 N.ar    1  UNL1       -0.2461
     22 O         141.6134  139.7816  168.2778 O.3     1  UNL1       -0.4692
     23 C         140.1450  140.0874  168.2658 C.3     1  UNL1        0.2772
     24 C         139.3785  140.0354  166.9775 C.3     1  UNL1        0.3615
     25 F         138.8228  138.7311  166.4876 F       1  UNL1       -0.1942
     26 F         139.1678  141.2877  166.1791 F       1  UNL1       -0.1942
@<TRIPOS>BOND
     1     2     1    1
     2     2    16    1
     3    16    17   ar
     4    17    18   ar
     5    18    22    1
     6    22    23    1
     7    23    24    1
     8    24    25    1
     9    24    26    1
    10    18    19   ar
    11    19    20   ar
    12    20    21   ar
    13     2     3    1
    14     3     4   ar
    15     4     5   ar
    16     5     6   ar
    17     6     7   ar
    18     7     8    1
    19     7     9   ar
    20     9    10   ar
    21    10    11    1
    22    10    12   ar
    23    12    13   ar
    24    21    16   ar
    25    13     3   ar
    26    13     6   ar
    27     8    14    1
    28     8    15    1
@<TRIPOS>MOLECULE
*****
 26 28 0 0 0
SMALL
GASTEIGER

@<TRIPOS>ATOM
      1 C         143.8043  138.4543  166.0366 C.3     1  UNL1        0.0312
      2 C         142.9544  139.6836  165.9084 C.3     1  UNL1        0.1285
      3 N         143.4398  140.8500  165.0997 N.ar    1  UNL1       -0.2908
      4 C         144.7846  140.9713  164.4465 C.ar    1  UNL1        0.1800
      5 N         144.8414  142.2961  163.7453 N.ar    1  UNL1       -0.2195
      6 C         143.5318  142.9936  163.9652 C.ar    1  UNL1        0.1481
      7 C         143.0161  144.3270  163.5114 C.ar    1  UNL1        0.1487
      8 N         143.8824  145.2208  162.6743 N.pl3   1  UNL1       -0.3413
      9 N         141.6342  144.7668  163.8947 N.ar    1  UNL1       -0.2006
     10 C         140.7679  143.8730  164.7318 C.ar    1  UNL1        0.2264
     11 CL        139.3860  144.3127  165.1150 Cl      1  UNL1       -0.0409
     12 N         141.2836  142.5395  165.1856 N.ar    1  UNL1       -0.1976
     13 C         142.6655  142.0998  164.8023 C.ar    1  UNL1        0.1682
     14 H         144.7895  144.9322  162.4228 H       1  UNL1        0.1438
     15 H         143.5440  146.0960  162.3765 H       1  UNL1        0.1438
     16 C         141.6191  139.7466  166.5890 C.ar    1  UNL1        0.0827
     17 C         141.4974  140.3764  167.9449 C.ar    1  UNL1        0.0535
     18 C         140.1622  140.4393  168.6254 C.ar    1  UNL1        0.1416
     19 C         138.9486  139.8725  167.9501 C.ar    1  UNL1        0.0575
     20 C         139.0704  139.2427  166.5942 C.ar    1  UNL1        0.1016
     21 N         140.4056  139.1797  165.9137 N.ar    1  UNL1       -0.2461
     22 O         140.0404  141.0692  169.9814 O.3     1  UNL1       -0.4692
     23 C         140.7735  142.3419  170.2857 C.3     1  UNL1        0.2772
     24 C         140.4135  143.6060  169.5629 C.3     1  UNL1        0.3615
     25 F         140.3300  144.9017  170.3142 F       1  UNL1       -0.1942
     26 F         140.1371  143.5744  168.0889 F       1  UNL1       -0.1942
@<TRIPOS>BOND
     1     2     1    1
     2     2    16    1
     3    16    17   ar
     4    17    18   ar
     5    18    22    1
     6    22    23    1
     7    23    24    1
     8    24    25    1
     9    24    26    1
    10    18    19   ar
    11    19    20   ar
    12    20    21   ar
    13     2     3    1
    14     3     4   ar
    15     4     5   ar
    16     5     6   ar
    17     6     7   ar
    18     7     8    1
    19     7     9   ar
    20     9    10   ar
    21    10    11    1
    22    10    12   ar
    23    12    13   ar
    24    21    16   ar
    25    13     3   ar
    26    13     6   ar
    27     8    14    1
    28     8    15    1
@<TRIPOS>MOLECULE
*****
 26 28 0 0 0
SMALL
GASTEIGER

@<TRIPOS>ATOM
      1 C         143.6951  140.2742  164.9608 C.3     1  UNL1        0.0312
      2 C         142.9904  141.4355  165.5969 C.3     1  UNL1        0.1285
      3 N         142.5072  141.3352  167.0134 N.ar    1  UNL1       -0.2908
      4 C         143.2222  141.8502  168.2273 C.ar    1  UNL1        0.1800
      5 N         142.3811  141.5355  169.4288 N.ar    1  UNL1       -0.2195
      6 C         141.1464  140.8261  168.9574 C.ar    1  UNL1        0.1481
      7 C         139.9612  140.2768  169.6947 C.ar    1  UNL1        0.1487
      8 N         139.8832  140.4007  171.1875 N.pl3   1  UNL1       -0.3413
      9 N         138.8539  139.6037  168.9391 N.ar    1  UNL1       -0.2006
     10 C         138.9318  139.4799  167.4463 C.ar    1  UNL1        0.2264
     11 CL        137.8246  138.8069  166.6907 Cl      1  UNL1       -0.0409
     12 N         140.1171  140.0292  166.7090 N.ar    1  UNL1       -0.1976
     13 C         141.2244  140.7023  167.4646 C.ar    1  UNL1        0.1682
     14 H         140.6100  140.8424  171.6835 H       1  UNL1        0.1438
     15 H         139.1053  140.0402  171.6714 H       1  UNL1        0.1438
     16 C         142.7688  142.6972  164.8164 C.ar    1  UNL1        0.0827
     17 C         141.4941  142.8905  164.0496 C.ar    1  UNL1        0.0535
     18 C         141.2725  144.1522  163.2691 C.ar    1  UNL1        0.1416
     19 C         142.3255  145.2205  163.2555 C.ar    1  UNL1        0.0575
     20 C         143.6000  145.0270  164.0223 C.ar    1  UNL1        0.1016
     21 N         143.8217  143.7654  164.8027 N.ar    1  UNL1       -0.2461
     22 O         139.9979  144.3457  162.5023 O.3     1  UNL1       -0.4692
     23 C         138.7896  144.9128  163.1867 C.3     1  UNL1        0.2772
     24 C         138.4471  144.4826  164.5822 C.3     1  UNL1        0.3615
     25 F         137.9999  143.0750  164.8446 F       1  UNL1       -0.1942
     26 F         138.5517  145.4599  165.7153 F       1  UNL1       -0.1942
@<TRIPOS>BOND
     1     2     1    1
     2     2    16    1
     3    16    17   ar
     4    17    18   ar
     5    18    22    1
     6    22    23    1
     7    23    24    1
     8    24    25    1
     9    24    26    1
    10    18    19   ar
    11    19    20   ar
    12    20    21   ar
    13     2     3    1
    14     3     4   ar
    15     4     5   ar
    16     5     6   ar
    17     6     7   ar
    18     7     8    1
    19     7     9   ar
    20     9    10   ar
    21    10    11    1
    22    10    12   ar
    23    12    13   ar
    24    21    16   ar
    25    13     3   ar
    26    13     6   ar
    27     8    14    1
    28     8    15    1
@<TRIPOS>MOLECULE
*****
 26 28 0 0 0
SMALL
GASTEIGER

@<TRIPOS>ATOM
      1 C         138.6058  142.2421  164.2455 C.3     1  UNL1        0.0312
      2 C         139.8116  142.1918  165.1364 C.3     1  UNL1        0.1285
      3 N         139.7937  141.3471  166.3758 N.ar    1  UNL1       -0.2908
      4 C         139.6138  139.8587  166.4259 C.ar    1  UNL1        0.1800
      5 N         139.6614  139.4343  167.8638 N.ar    1  UNL1       -0.2195
      6 C         139.8707  140.6602  168.7023 C.ar    1  UNL1        0.1481
      7 C         139.9974  140.8529  170.1845 C.ar    1  UNL1        0.1487
      8 N         139.9156  139.6707  171.1041 N.pl3   1  UNL1       -0.3413
      9 N         140.2057  142.2277  170.7471 N.ar    1  UNL1       -0.2006
     10 C         140.2875  143.4099  169.8274 C.ar    1  UNL1        0.2264
     11 CL        140.4958  144.7847  170.3899 Cl      1  UNL1       -0.0409
     12 N         140.1608  143.2172  168.3452 N.ar    1  UNL1       -0.1976
     13 C         139.9524  141.8424  167.7827 C.ar    1  UNL1        0.1682
     14 H         139.7789  138.7683  170.7349 H       1  UNL1        0.1438
     15 H         139.9988  139.7971  172.0769 H       1  UNL1        0.1438
     16 C         141.0353  142.9862  164.7878 C.ar    1  UNL1        0.0827
     17 C         142.3983  142.4055  165.0224 C.ar    1  UNL1        0.0535
     18 C         143.6220  143.1999  164.6738 C.ar    1  UNL1        0.1416
     19 C         143.4827  144.5750  164.0906 C.ar    1  UNL1        0.0575
     20 C         142.1196  145.1555  163.8561 C.ar    1  UNL1        0.1016
     21 N         140.8960  144.3611  164.2047 N.ar    1  UNL1       -0.2461
     22 O         144.9851  142.6194  164.9084 O.3     1  UNL1       -0.4692
     23 C         145.6140  141.7386  163.8698 C.3     1  UNL1        0.2772
     24 C         145.1130  140.3389  163.6702 C.3     1  UNL1        0.3615
     25 F         144.2489  140.0131  162.4881 F       1  UNL1       -0.1942
     26 F         145.4760  139.2651  164.6526 F       1  UNL1       -0.1942
@<TRIPOS>BOND
     1     2     1    1
     2     2    16    1
     3    16    17   ar
     4    17    18   ar
     5    18    22    1
     6    22    23    1
     7    23    24    1
     8    24    25    1
     9    24    26    1
    10    18    19   ar
    11    19    20   ar
    12    20    21   ar
    13     2     3    1
    14     3     4   ar
    15     4     5   ar
    16     5     6   ar
    17     6     7   ar
    18     7     8    1
    19     7     9   ar
    20     9    10   ar
    21    10    11    1
    22    10    12   ar
    23    12    13   ar
    24    21    16   ar
    25    13     3   ar
    26    13     6   ar
    27     8    14    1
    28     8    15    1
@<TRIPOS>MOLECULE
*****
 26 28 0 0 0
SMALL
GASTEIGER

@<TRIPOS>ATOM
      1 C         137.7822  138.6508  167.0468 C.3     1  UNL1        0.0312
      2 C         138.8404  139.2138  166.1449 C.3     1  UNL1        0.1285
      3 N         138.6644  139.1581  164.6563 N.ar    1  UNL1       -0.2908
      4 C         138.7918  137.9342  163.7986 C.ar    1  UNL1        0.1800
      5 N         138.5363  138.3363  162.3763 N.ar    1  UNL1       -0.2195
      6 C         138.2510  139.8088  162.3550 C.ar    1  UNL1        0.1481
      7 C         137.9294  140.7527  161.2345 C.ar    1  UNL1        0.1487
      8 N         137.8502  140.2448  159.8253 N.pl3   1  UNL1       -0.3413
      9 N         137.6869  142.2046  161.5231 N.ar    1  UNL1       -0.2006
     10 C         137.7661  142.7125  162.9323 C.ar    1  UNL1        0.2264
     11 CL        137.5236  144.1643  163.2209 Cl      1  UNL1       -0.0409
     12 N         138.0878  141.7685  164.0528 N.ar    1  UNL1       -0.1976
     13 C         138.3302  140.3167  163.7641 C.ar    1  UNL1        0.1682
     14 H         138.0093  139.2919  159.6358 H       1  UNL1        0.1438
     15 H         137.6391  140.8643  159.0899 H       1  UNL1        0.1438
     16 C         140.0745  139.8324  166.7317 C.ar    1  UNL1        0.0827
     17 C         141.0886  140.4785  165.8348 C.ar    1  UNL1        0.0535
     18 C         142.3227  141.0971  166.4216 C.ar    1  UNL1        0.1416
     19 C         142.5428  141.0697  167.9051 C.ar    1  UNL1        0.0575
     20 C         141.5287  140.4236  168.8019 C.ar    1  UNL1        0.1016
     21 N         140.2946  139.8050  168.2152 N.ar    1  UNL1       -0.2461
     22 O         143.3368  141.7431  165.5248 O.3     1  UNL1       -0.4692
     23 C         143.7728  141.0532  164.2663 C.3     1  UNL1        0.2772
     24 C         145.1756  140.5368  164.1415 C.3     1  UNL1        0.3615
     25 F         146.2476  141.4107  163.5608 F       1  UNL1       -0.1942
     26 F         145.5064  139.1466  164.5975 F       1  UNL1       -0.1942
@<TRIPOS>BOND
     1     2     1    1
     2     2    16    1
     3    16    17   ar
     4    17    18   ar
     5    18    22    1
     6    22    23    1
     7    23    24    1
     8    24    25    1
     9    24    26    1
    10    18    19   ar
    11    19    20   ar
    12    20    21   ar
    13     2     3    1
    14     3     4   ar
    15     4     5   ar
    16     5     6   ar
    17     6     7   ar
    18     7     8    1
    19     7     9   ar
    20     9    10   ar
    21    10    11    1
    22    10    12   ar
    23    12    13   ar
    24    21    16   ar
    25    13     3   ar
    26    13     6   ar
    27     8    14    1
    28     8    15    1
@<TRIPOS>MOLECULE
*****
 26 28 0 0 0
SMALL
GASTEIGER

@<TRIPOS>ATOM
      1 C         141.8416  140.6303  164.4690 C.3     1  UNL1        0.0312
      2 C         140.6389  141.1964  165.1640 C.3     1  UNL1        0.1285
      3 N         140.2141  140.6482  166.4941 N.ar    1  UNL1       -0.2908
      4 C         138.9903  139.8217  166.7569 C.ar    1  UNL1        0.1800
      5 N         138.9584  139.4930  168.2201 N.ar    1  UNL1       -0.2195
      6 C         140.1626  140.1164  168.8616 C.ar    1  UNL1        0.1481
      7 C         140.6527  140.1261  170.2792 C.ar    1  UNL1        0.1487
      8 N         139.8766  139.4121  171.3460 N.pl3   1  UNL1       -0.3413
      9 N         141.9189  140.8498  170.6301 N.ar    1  UNL1       -0.2006
     10 C         142.6950  141.5637  169.5634 C.ar    1  UNL1        0.2264
     11 CL        143.9611  142.2874  169.9142 Cl      1  UNL1       -0.0409
     12 N         142.2048  141.5540  168.1457 N.ar    1  UNL1       -0.1976
     13 C         140.9387  140.8303  167.7948 C.ar    1  UNL1        0.1682
     14 H         139.0455  138.9372  171.1157 H       1  UNL1        0.1438
     15 H         140.1982  139.4185  172.2764 H       1  UNL1        0.1438
     16 C         139.8610  142.3106  164.5290 C.ar    1  UNL1        0.0827
     17 C         139.1782  142.0925  163.2113 C.ar    1  UNL1        0.0535
     18 C         138.4003  143.2068  162.5762 C.ar    1  UNL1        0.1416
     19 C         138.3052  144.5391  163.2588 C.ar    1  UNL1        0.0575
     20 C         138.9880  144.7572  164.5764 C.ar    1  UNL1        0.1016
     21 N         139.7659  143.6429  165.2115 N.ar    1  UNL1       -0.2461
     22 O         137.7175  142.9887  161.2586 O.3     1  UNL1       -0.4692
     23 C         138.4907  142.4446  160.0941 C.3     1  UNL1        0.2772
     24 C         139.7021  143.1730  159.5919 C.3     1  UNL1        0.3615
     25 F         140.8609  142.4033  159.0308 F       1  UNL1       -0.1942
     26 F         139.7545  144.6709  159.6509 F       1  UNL1       -0.1942
@<TRIPOS>BOND
     1     2     1    1
     2     2    16    1
     3    16    17   ar
     4    17    18   ar
     5    18    22    1
     6    22    23    1
     7    23    24    1
     8    24    25    1
     9    24    26    1
    10    18    19   ar
    11    19    20   ar
    12    20    21   ar
    13     2     3    1
    14     3     4   ar
    15     4     5   ar
    16     5     6   ar
    17     6     7   ar
    18     7     8    1
    19     7     9   ar
    20     9    10   ar
    21    10    11    1
    22    10    12   ar
    23    12    13   ar
    24    21    16   ar
    25    13     3   ar
    26    13     6   ar
    27     8    14    1
    28     8    15    1
