@<TRIPOS>MOLECULE
*****
 38 42 0 0 0
SMALL
GASTEIGER

@<TRIPOS>ATOM
      1 N         139.8618  143.3548  153.3499 N.pl3   1  UNL1       -0.3380
      2 C         138.4367  142.9223  153.5289 C.2     1  UNL1        0.1482
      3 N         138.0394  142.1318  154.7402 N.2     1  UNL1       -0.2491
      4 C         136.6143  141.6992  154.9192 C.3     1  UNL1        0.1277
      5 C         135.9312  140.9169  156.0016 C.3     1  UNL1        0.1202
      6 N         134.4813  140.7915  155.6383 N.pl3   1  UNL1       -0.2758
      7 C         134.2683  141.4962  154.3314 C.3     1  UNL1        0.0968
      8 C         135.5865  142.0572  153.8869 C.3     1  UNL1        0.0573
      9 C         135.9839  142.8477  152.6757 C.3     1  UNL1        0.0688
     10 S         137.4090  143.2803  152.4967 S.3     1  UNL1       -0.0807
     11 H         140.5363  143.1199  154.0274 H       1  UNL1        0.1442
     12 H         140.1226  143.8737  152.5549 H       1  UNL1        0.1442
     13 C         137.5264  141.2693  156.0297 C.ar    1  UNL1        0.0282
     14 C         137.6511  142.1100  157.2658 C.ar    1  UNL1        0.0145
     15 C         138.5632  141.6801  158.3762 C.ar    1  UNL1        0.0505
     16 C         139.3507  140.4095  158.2507 C.ar    1  UNL1        0.0170
     17 C         139.2260  139.5689  157.0147 C.ar    1  UNL1        0.0306
     18 C         138.3138  139.9988  155.9041 C.ar    1  UNL1        0.1380
     19 F         138.1891  139.1581  154.6681 F       1  UNL1       -0.2044
     20 N         138.6880  142.5206  159.6122 N.am    1  UNL1       -0.2791
     21 C         138.0922  142.0469  160.9047 C.2     1  UNL1        0.2695
     22 O         137.3716  140.7326  160.9612 O.2     1  UNL1       -0.2681
     23 H         139.1609  143.3833  159.5752 H       1  UNL1        0.1552
     24 C         138.2169  142.8876  162.1408 C.ar    1  UNL1        0.1622
     25 N         138.8483  144.2460  162.0634 N.ar    1  UNL1       -0.2346
     26 C         138.9731  145.0867  163.2994 C.ar    1  UNL1        0.1287
     27 C         138.4665  144.5689  164.6129 C.ar    1  UNL1        0.1615
     28 F         138.5913  145.4095  165.8489 F       1  UNL1       -0.2025
     29 C         137.8351  143.2104  164.6903 C.ar    1  UNL1        0.0626
     30 C         137.7103  142.3698  163.4543 C.ar    1  UNL1        0.1644
     31 F         137.0789  141.0113  163.5317 F       1  UNL1       -0.2023
     32 C         133.4291  140.0853  156.4410 C.ar    1  UNL1        0.2204
     33 N         133.8239  139.0334  157.4347 N.ar    1  UNL1       -0.2097
     34 C         132.7717  138.3273  158.2373 C.ar    1  UNL1        0.1330
     35 C         131.3247  138.6731  158.0462 C.ar    1  UNL1        0.1784
     36 F         130.2725  137.9669  158.8489 F       1  UNL1       -0.2009
     37 C         130.9299  139.7250  157.0524 C.ar    1  UNL1        0.1330
     38 N         131.9821  140.4311  156.2498 N.ar    1  UNL1       -0.2097
@<TRIPOS>BOND
     1     1     2    1
     2     2     3    2
     3     3     4    1
     4     4    13    1
     5    13    14   ar
     6    14    15   ar
     7    15    20    1
     8    20    21   am
     9    21    22    2
    10    21    24    1
    11    24    25   ar
    12    25    26   ar
    13    26    27   ar
    14    27    28    1
    15    27    29   ar
    16    29    30   ar
    17    30    31    1
    18    15    16   ar
    19    16    17   ar
    20    17    18   ar
    21    18    19    1
    22     4     5    1
    23     5     6    1
    24     6    32    1
    25    32    33   ar
    26    33    34   ar
    27    34    35   ar
    28    35    36    1
    29    35    37   ar
    30    37    38   ar
    31     6     7    1
    32     8     7    1
    33     8     9    1
    34     9    10    1
    35    10     2    1
    36     8     4    1
    37    18    13   ar
    38    38    32   ar
    39    30    24   ar
    40     1    11    1
    41     1    12    1
    42    20    23    1
@<TRIPOS>MOLECULE
*****
 38 42 0 0 0
SMALL
GASTEIGER

@<TRIPOS>ATOM
      1 N         141.5038  145.4982  159.9073 N.pl3   1  UNL1       -0.3380
      2 C         141.0774  145.0966  161.2882 C.2     1  UNL1        0.1482
      3 N         141.7347  143.9318  161.9671 N.2     1  UNL1       -0.2491
      4 C         141.3083  143.5301  163.3480 C.3     1  UNL1        0.1277
      5 C         141.7701  142.4341  164.2621 C.3     1  UNL1        0.1202
      6 N         140.9717  142.5200  165.5291 N.pl3   1  UNL1       -0.2758
      7 C         140.0165  143.6691  165.3980 C.3     1  UNL1        0.0968
      8 C         140.2245  144.2934  164.0500 C.3     1  UNL1        0.0573
      9 C         139.5672  145.4582  163.3711 C.3     1  UNL1        0.0688
     10 S         139.9936  145.8598  161.9902 S.3     1  UNL1       -0.0807
     11 H         142.2151  144.9972  159.4466 H       1  UNL1        0.1442
     12 H         141.0723  146.2627  159.4617 H       1  UNL1        0.1442
     13 C         142.4002  142.6765  162.7742 C.ar    1  UNL1        0.0282
     14 C         142.0599  141.5418  161.8540 C.ar    1  UNL1        0.0145
     15 C         143.1517  140.6882  161.2802 C.ar    1  UNL1        0.0505
     16 C         144.5838  140.9693  161.6266 C.ar    1  UNL1        0.0170
     17 C         144.9242  142.1039  162.5468 C.ar    1  UNL1        0.0306
     18 C         143.8323  142.9576  163.1207 C.ar    1  UNL1        0.1380
     19 F         144.1726  144.0922  164.0409 F       1  UNL1       -0.2044
     20 N         142.8114  139.5536  160.3600 N.am    1  UNL1       -0.2791
     21 C         142.5001  139.8250  158.9180 C.2     1  UNL1        0.2695
     22 O         142.5291  141.2309  158.3962 O.2     1  UNL1       -0.2681
     23 H         142.7924  138.6308  160.7025 H       1  UNL1        0.1552
     24 C         142.1599  138.6902  157.9978 C.ar    1  UNL1        0.1622
     25 N         143.2549  137.8843  157.3641 N.ar    1  UNL1       -0.2346
     26 C         142.9147  136.7497  156.4439 C.ar    1  UNL1        0.1287
     27 C         141.4795  136.4209  156.1574 C.ar    1  UNL1        0.1615
     28 F         141.1393  135.2862  155.2372 F       1  UNL1       -0.2025
     29 C         140.3845  137.2268  156.7911 C.ar    1  UNL1        0.0626
     30 C         140.7247  138.3615  157.7113 C.ar    1  UNL1        0.1644
     31 F         139.6297  139.1674  158.3449 F       1  UNL1       -0.2023
     32 C         141.1051  141.6156  166.7183 C.ar    1  UNL1        0.2204
     33 N         142.4550  141.3646  167.3221 N.ar    1  UNL1       -0.2097
     34 C         142.5883  140.4602  168.5113 C.ar    1  UNL1        0.1330
     35 C         141.3716  139.8068  169.0968 C.ar    1  UNL1        0.1784
     36 F         141.5050  138.9024  170.2861 F       1  UNL1       -0.2009
     37 C         140.0217  140.0578  168.4930 C.ar    1  UNL1        0.1330
     38 N         139.8884  140.9622  167.3038 N.ar    1  UNL1       -0.2097
@<TRIPOS>BOND
     1     1     2    1
     2     2     3    2
     3     3     4    1
     4     4    13    1
     5    13    14   ar
     6    14    15   ar
     7    15    20    1
     8    20    21   am
     9    21    22    2
    10    21    24    1
    11    24    25   ar
    12    25    26   ar
    13    26    27   ar
    14    27    28    1
    15    27    29   ar
    16    29    30   ar
    17    30    31    1
    18    15    16   ar
    19    16    17   ar
    20    17    18   ar
    21    18    19    1
    22     4     5    1
    23     5     6    1
    24     6    32    1
    25    32    33   ar
    26    33    34   ar
    27    34    35   ar
    28    35    36    1
    29    35    37   ar
    30    37    38   ar
    31     6     7    1
    32     8     7    1
    33     8     9    1
    34     9    10    1
    35    10     2    1
    36     8     4    1
    37    18    13   ar
    38    38    32   ar
    39    30    24   ar
    40     1    11    1
    41     1    12    1
    42    20    23    1
@<TRIPOS>MOLECULE
*****
 38 42 0 0 0
SMALL
GASTEIGER

@<TRIPOS>ATOM
      1 N         137.7464  144.0133  152.9523 N.pl3   1  UNL1       -0.3380
      2 C         138.1287  143.7349  154.3758 C.2     1  UNL1        0.1482
      3 N         137.7421  142.4345  155.0156 N.2     1  UNL1       -0.2491
      4 C         138.1244  142.1562  156.4391 C.3     1  UNL1        0.1277
      5 C         137.8844  140.9733  157.3299 C.3     1  UNL1        0.1202
      6 N         138.5050  141.2644  158.6640 N.pl3   1  UNL1       -0.2758
      7 C         139.1285  142.6271  158.5978 C.3     1  UNL1        0.0968
      8 C         138.8933  143.1782  157.2227 C.3     1  UNL1        0.0573
      9 C         139.2799  144.4786  156.5829 C.3     1  UNL1        0.0688
     10 S         138.8976  144.7570  155.1594 S.3     1  UNL1       -0.0807
     11 H         137.2417  143.3425  152.4379 H       1  UNL1        0.1442
     12 H         138.0001  144.8669  152.5323 H       1  UNL1        0.1442
     13 C         137.3594  141.0443  155.7842 C.ar    1  UNL1        0.0282
     14 C         135.8627  141.0075  155.8771 C.ar    1  UNL1        0.0145
     15 C         135.0978  139.8957  155.2223 C.ar    1  UNL1        0.0505
     16 C         135.8296  138.8208  154.4745 C.ar    1  UNL1        0.0170
     17 C         137.3262  138.8576  154.3816 C.ar    1  UNL1        0.0306
     18 C         138.0912  139.9694  155.0365 C.ar    1  UNL1        0.1380
     19 F         139.5879  140.0063  154.9436 F       1  UNL1       -0.2044
     20 N         133.6012  139.8588  155.3152 N.am    1  UNL1       -0.2791
     21 C         132.9389  139.4973  156.6115 C.2     1  UNL1        0.2695
     22 O         133.7731  139.1726  157.8150 O.2     1  UNL1       -0.2681
     23 H         133.0536  140.0719  154.5253 H       1  UNL1        0.1552
     24 C         131.4421  139.4604  156.7044 C.ar    1  UNL1        0.1622
     25 N         130.7586  138.2831  157.3344 N.ar    1  UNL1       -0.2346
     26 C         129.2619  138.2462  157.4273 C.ar    1  UNL1        0.1287
     27 C         128.4488  139.3865  156.8901 C.ar    1  UNL1        0.1615
     28 F         126.9522  139.3495  156.9830 F       1  UNL1       -0.2025
     29 C         129.1324  140.5637  156.2601 C.ar    1  UNL1        0.0626
     30 C         130.6290  140.6006  156.1672 C.ar    1  UNL1        0.1644
     31 F         131.3126  141.7778  155.5371 F       1  UNL1       -0.2023
     32 C         138.5025  140.3528  159.8554 C.ar    1  UNL1        0.2204
     33 N         137.8452  140.7882  161.1314 N.ar    1  UNL1       -0.2097
     34 C         137.8428  139.8766  162.3227 C.ar    1  UNL1        0.1330
     35 C         138.4977  138.5298  162.2378 C.ar    1  UNL1        0.1784
     36 F         138.4952  137.6182  163.4291 F       1  UNL1       -0.2009
     37 C         139.1550  138.0945  160.9617 C.ar    1  UNL1        0.1330
     38 N         139.1574  139.0060  159.7705 N.ar    1  UNL1       -0.2097
@<TRIPOS>BOND
     1     1     2    1
     2     2     3    2
     3     3     4    1
     4     4    13    1
     5    13    14   ar
     6    14    15   ar
     7    15    20    1
     8    20    21   am
     9    21    22    2
    10    21    24    1
    11    24    25   ar
    12    25    26   ar
    13    26    27   ar
    14    27    28    1
    15    27    29   ar
    16    29    30   ar
    17    30    31    1
    18    15    16   ar
    19    16    17   ar
    20    17    18   ar
    21    18    19    1
    22     4     5    1
    23     5     6    1
    24     6    32    1
    25    32    33   ar
    26    33    34   ar
    27    34    35   ar
    28    35    36    1
    29    35    37   ar
    30    37    38   ar
    31     6     7    1
    32     8     7    1
    33     8     9    1
    34     9    10    1
    35    10     2    1
    36     8     4    1
    37    18    13   ar
    38    38    32   ar
    39    30    24   ar
    40     1    11    1
    41     1    12    1
    42    20    23    1
@<TRIPOS>MOLECULE
*****
 38 42 0 0 0
SMALL
GASTEIGER

@<TRIPOS>ATOM
      1 N         145.4550  142.9273  160.5803 N.pl3   1  UNL1       -0.3380
      2 C         144.4315  142.8010  161.6695 C.2     1  UNL1        0.1482
      3 N         143.7125  141.5008  161.8760 N.2     1  UNL1       -0.2491
      4 C         142.6890  141.3746  162.9652 C.3     1  UNL1        0.1277
      5 C         141.8263  140.2285  163.4039 C.3     1  UNL1        0.1202
      6 N         140.9885  140.6941  164.5577 N.pl3   1  UNL1       -0.2758
      7 C         141.3334  142.1279  164.8321 C.3     1  UNL1        0.0968
      8 C         142.3844  142.5484  163.8479 C.3     1  UNL1        0.0573
      9 C         143.1033  143.8486  163.6414 C.3     1  UNL1        0.0688
     10 S         144.1269  143.9749  162.5522 S.3     1  UNL1       -0.0807
     11 H         145.6550  142.1568  160.0009 H       1  UNL1        0.1442
     12 H         145.9269  143.7806  160.4447 H       1  UNL1        0.1442
     13 C         142.8867  140.1209  162.1655 C.ar    1  UNL1        0.0282
     14 C         141.9873  139.8235  161.0026 C.ar    1  UNL1        0.0145
     15 C         142.1851  138.5699  160.2029 C.ar    1  UNL1        0.0505
     16 C         143.2823  137.6138  160.5663 C.ar    1  UNL1        0.0170
     17 C         144.1817  137.9113  161.7293 C.ar    1  UNL1        0.0306
     18 C         143.9840  139.1649  162.5289 C.ar    1  UNL1        0.1380
     19 F         144.8834  139.4624  163.6919 F       1  UNL1       -0.2044
     20 N         141.2857  138.2724  159.0400 N.am    1  UNL1       -0.2791
     21 C         141.8634  138.1244  157.6637 C.2     1  UNL1        0.2695
     22 O         143.3405  138.2740  157.4503 O.2     1  UNL1       -0.2681
     23 H         140.3162  138.1742  159.1801 H       1  UNL1        0.1552
     24 C         140.9640  137.8269  156.5007 C.ar    1  UNL1        0.1622
     25 N         139.9731  138.8532  156.0370 N.ar    1  UNL1       -0.2346
     26 C         139.0737  138.5557  154.8741 C.ar    1  UNL1        0.1287
     27 C         139.1651  137.2319  154.1747 C.ar    1  UNL1        0.1615
     28 F         138.2656  136.9344  153.0118 F       1  UNL1       -0.2025
     29 C         140.1559  136.2056  154.6384 C.ar    1  UNL1        0.0626
     30 C         141.0553  136.5030  155.8013 C.ar    1  UNL1        0.1644
     31 F         142.0462  135.4767  156.2649 F       1  UNL1       -0.2023
     32 C         139.9824  139.8706  165.3058 C.ar    1  UNL1        0.2204
     33 N         139.4801  138.5849  164.7188 N.ar    1  UNL1       -0.2097
     34 C         138.4741  137.7614  165.4669 C.ar    1  UNL1        0.1330
     35 C         137.9704  138.2236  166.8021 C.ar    1  UNL1        0.1784
     36 F         136.9643  137.4000  167.5502 F       1  UNL1       -0.2009
     37 C         138.4727  139.5093  167.3891 C.ar    1  UNL1        0.1330
     38 N         139.4787  140.3327  166.6410 N.ar    1  UNL1       -0.2097
@<TRIPOS>BOND
     1     1     2    1
     2     2     3    2
     3     3     4    1
     4     4    13    1
     5    13    14   ar
     6    14    15   ar
     7    15    20    1
     8    20    21   am
     9    21    22    2
    10    21    24    1
    11    24    25   ar
    12    25    26   ar
    13    26    27   ar
    14    27    28    1
    15    27    29   ar
    16    29    30   ar
    17    30    31    1
    18    15    16   ar
    19    16    17   ar
    20    17    18   ar
    21    18    19    1
    22     4     5    1
    23     5     6    1
    24     6    32    1
    25    32    33   ar
    26    33    34   ar
    27    34    35   ar
    28    35    36    1
    29    35    37   ar
    30    37    38   ar
    31     6     7    1
    32     8     7    1
    33     8     9    1
    34     9    10    1
    35    10     2    1
    36     8     4    1
    37    18    13   ar
    38    38    32   ar
    39    30    24   ar
    40     1    11    1
    41     1    12    1
    42    20    23    1
@<TRIPOS>MOLECULE
*****
 38 42 0 0 0
SMALL
GASTEIGER

@<TRIPOS>ATOM
      1 N         137.7225  142.9598  161.2290 N.pl3   1  UNL1       -0.3380
      2 C         138.3408  143.1144  162.5869 C.2     1  UNL1        0.1482
      3 N         139.0062  141.9427  163.2458 N.2     1  UNL1       -0.2491
      4 C         139.6245  142.0973  164.6037 C.3     1  UNL1        0.1277
      5 C         140.3440  141.1289  165.4951 C.3     1  UNL1        0.1202
      6 N         140.7414  141.8567  166.7450 N.pl3   1  UNL1       -0.2758
      7 C         140.2676  143.2750  166.6260 C.3     1  UNL1        0.0968
      8 C         139.5773  143.4236  165.3027 C.3     1  UNL1        0.0573
      9 C         138.9118  144.5953  164.6437 C.3     1  UNL1        0.0688
     10 S         138.2936  144.4407  163.2859 S.3     1  UNL1       -0.0807
     11 H         137.7535  142.0892  160.7703 H       1  UNL1        0.1442
     12 H         137.2857  143.7288  160.7965 H       1  UNL1        0.1442
     13 C         139.7489  140.7167  164.0303 C.ar    1  UNL1        0.0282
     14 C         140.6393  140.4732  162.8480 C.ar    1  UNL1        0.0145
     15 C         140.7637  139.0927  162.2746 C.ar    1  UNL1        0.0505
     16 C         139.9978  137.9558  162.8836 C.ar    1  UNL1        0.0170
     17 C         139.1074  138.1994  164.0659 C.ar    1  UNL1        0.0306
     18 C         138.9830  139.5799  164.6393 C.ar    1  UNL1        0.1380
     19 F         138.0926  139.8235  165.8217 F       1  UNL1       -0.2044
     20 N         141.6540  138.8490  161.0923 N.am    1  UNL1       -0.2791
     21 C         141.0830  138.8747  159.7055 C.2     1  UNL1        0.2695
     22 O         139.6217  139.1441  159.5010 O.2     1  UNL1       -0.2681
     23 H         142.6131  138.6722  161.2265 H       1  UNL1        0.1552
     24 C         141.9734  138.6311  158.5231 C.ar    1  UNL1        0.1622
     25 N         142.0938  137.2515  157.9466 N.ar    1  UNL1       -0.2346
     26 C         142.9842  137.0078  156.7643 C.ar    1  UNL1        0.1287
     27 C         143.7541  138.1436  156.1585 C.ar    1  UNL1        0.1615
     28 F         144.6444  137.8999  154.9762 F       1  UNL1       -0.2025
     29 C         143.6336  139.5232  156.7350 C.ar    1  UNL1        0.0626
     30 C         142.7433  139.7669  157.9173 C.ar    1  UNL1        0.1644
     31 F         142.6229  141.1465  158.4937 F       1  UNL1       -0.2023
     32 C         141.4826  141.2695  167.9095 C.ar    1  UNL1        0.2204
     33 N         141.2211  139.8530  168.3278 N.ar    1  UNL1       -0.2097
     34 C         141.9622  139.2658  169.4922 C.ar    1  UNL1        0.1330
     35 C         142.9650  140.0952  170.2383 C.ar    1  UNL1        0.1784
     36 F         143.7062  139.5080  171.4027 F       1  UNL1       -0.2009
     37 C         143.2265  141.5117  169.8200 C.ar    1  UNL1        0.1330
     38 N         142.4854  142.0989  168.6556 N.ar    1  UNL1       -0.2097
@<TRIPOS>BOND
     1     1     2    1
     2     2     3    2
     3     3     4    1
     4     4    13    1
     5    13    14   ar
     6    14    15   ar
     7    15    20    1
     8    20    21   am
     9    21    22    2
    10    21    24    1
    11    24    25   ar
    12    25    26   ar
    13    26    27   ar
    14    27    28    1
    15    27    29   ar
    16    29    30   ar
    17    30    31    1
    18    15    16   ar
    19    16    17   ar
    20    17    18   ar
    21    18    19    1
    22     4     5    1
    23     5     6    1
    24     6    32    1
    25    32    33   ar
    26    33    34   ar
    27    34    35   ar
    28    35    36    1
    29    35    37   ar
    30    37    38   ar
    31     6     7    1
    32     8     7    1
    33     8     9    1
    34     9    10    1
    35    10     2    1
    36     8     4    1
    37    18    13   ar
    38    38    32   ar
    39    30    24   ar
    40     1    11    1
    41     1    12    1
    42    20    23    1
@<TRIPOS>MOLECULE
*****
 38 42 0 0 0
SMALL
GASTEIGER

@<TRIPOS>ATOM
      1 N         138.7848  141.6254  157.0030 N.pl3   1  UNL1       -0.3380
      2 C         139.1937  140.2707  156.5056 C.2     1  UNL1        0.1482
      3 N         140.3145  139.5325  157.1756 N.2     1  UNL1       -0.2491
      4 C         140.7233  138.1778  156.6781 C.3     1  UNL1        0.1277
      5 C         141.7833  137.2191  157.1337 C.3     1  UNL1        0.1202
      6 N         141.7265  136.0100  156.2478 N.pl3   1  UNL1       -0.2758
      7 C         140.6314  136.2214  155.2447 C.3     1  UNL1        0.0968
      8 C         140.0115  137.5612  155.5107 C.3     1  UNL1        0.0573
      9 C         138.8907  138.2993  154.8407 C.3     1  UNL1        0.0688
     10 S         138.4818  139.6541  155.3381 S.3     1  UNL1       -0.0807
     11 H         139.2520  142.0301  157.7692 H       1  UNL1        0.1442
     12 H         138.0492  142.1099  156.5632 H       1  UNL1        0.1442
     13 C         141.5237  138.6647  157.8497 C.ar    1  UNL1        0.0282
     14 C         140.9953  138.4918  159.2428 C.ar    1  UNL1        0.0145
     15 C         141.7957  138.9787  160.4143 C.ar    1  UNL1        0.0505
     16 C         143.1245  139.6385  160.1925 C.ar    1  UNL1        0.0170
     17 C         143.6529  139.8113  158.7994 C.ar    1  UNL1        0.0306
     18 C         142.8525  139.3244  157.6278 C.ar    1  UNL1        0.1380
     19 F         143.3809  139.4972  156.2347 F       1  UNL1       -0.2044
     20 N         141.2674  138.8060  161.8074 N.am    1  UNL1       -0.2791
     21 C         140.3143  139.8137  162.3785 C.2     1  UNL1        0.2695
     22 O         139.8896  140.9942  161.5564 O.2     1  UNL1       -0.2681
     23 H         141.5461  138.0311  162.3470 H       1  UNL1        0.1552
     24 C         139.7860  139.6408  163.7717 C.ar    1  UNL1        0.1622
     25 N         139.9688  140.7326  164.7840 N.ar    1  UNL1       -0.2346
     26 C         139.4405  140.5599  166.1772 C.ar    1  UNL1        0.1287
     27 C         138.7293  139.2953  166.5581 C.ar    1  UNL1        0.1615
     28 F         138.2010  139.1226  167.9514 F       1  UNL1       -0.2025
     29 C         138.5464  138.2036  165.5459 C.ar    1  UNL1        0.0626
     30 C         139.0748  138.3763  164.1527 C.ar    1  UNL1        0.1644
     31 F         138.8919  137.2846  163.1404 F       1  UNL1       -0.2023
     32 C         142.6097  134.8016  156.3474 C.ar    1  UNL1        0.2204
     33 N         142.7172  133.8537  155.1899 N.ar    1  UNL1       -0.2097
     34 C         143.6003  132.6454  155.2895 C.ar    1  UNL1        0.1330
     35 C         144.3760  132.3850  156.5467 C.ar    1  UNL1        0.1784
     36 F         145.2592  131.1766  156.6464 F       1  UNL1       -0.2009
     37 C         144.2685  133.3329  157.7043 C.ar    1  UNL1        0.1330
     38 N         143.3854  134.5412  157.6046 N.ar    1  UNL1       -0.2097
@<TRIPOS>BOND
     1     1     2    1
     2     2     3    2
     3     3     4    1
     4     4    13    1
     5    13    14   ar
     6    14    15   ar
     7    15    20    1
     8    20    21   am
     9    21    22    2
    10    21    24    1
    11    24    25   ar
    12    25    26   ar
    13    26    27   ar
    14    27    28    1
    15    27    29   ar
    16    29    30   ar
    17    30    31    1
    18    15    16   ar
    19    16    17   ar
    20    17    18   ar
    21    18    19    1
    22     4     5    1
    23     5     6    1
    24     6    32    1
    25    32    33   ar
    26    33    34   ar
    27    34    35   ar
    28    35    36    1
    29    35    37   ar
    30    37    38   ar
    31     6     7    1
    32     8     7    1
    33     8     9    1
    34     9    10    1
    35    10     2    1
    36     8     4    1
    37    18    13   ar
    38    38    32   ar
    39    30    24   ar
    40     1    11    1
    41     1    12    1
    42    20    23    1
@<TRIPOS>MOLECULE
*****
 38 42 0 0 0
SMALL
GASTEIGER

@<TRIPOS>ATOM
      1 N         139.4714  144.6638  160.1368 N.pl3   1  UNL1       -0.3380
      2 C         140.1409  144.3948  161.4518 C.2     1  UNL1        0.1482
      3 N         139.9907  143.0551  162.1097 N.2     1  UNL1       -0.2491
      4 C         140.6603  142.7861  163.4247 C.3     1  UNL1        0.1277
      5 C         140.6921  141.5718  164.3049 C.3     1  UNL1        0.1202
      6 N         141.5315  141.8920  165.5061 N.pl3   1  UNL1       -0.2758
      7 C         142.0185  143.3041  165.3682 C.3     1  UNL1        0.0968
      8 C         141.4800  143.8566  164.0819 C.3     1  UNL1        0.0573
      9 C         141.6302  145.1962  163.4240 C.3     1  UNL1        0.0688
     10 S         140.9607  145.4653  162.1090 S.3     1  UNL1       -0.0807
     11 H         138.9334  143.9612  159.7054 H       1  UNL1        0.1442
     12 H         139.5700  145.5431  159.7050 H       1  UNL1        0.1442
     13 C         139.8763  141.6242  162.8902 C.ar    1  UNL1        0.0282
     14 C         140.4960  140.7009  161.8835 C.ar    1  UNL1        0.0145
     15 C         139.7121  139.5391  161.3490 C.ar    1  UNL1        0.0505
     16 C         138.3085  139.3006  161.8213 C.ar    1  UNL1        0.0170
     17 C         137.6888  140.2239  162.8280 C.ar    1  UNL1        0.0306
     18 C         138.4728  141.3858  163.3625 C.ar    1  UNL1        0.1380
     19 F         137.8531  142.3091  164.3693 F       1  UNL1       -0.2044
     20 N         140.3317  138.6158  160.3423 N.am    1  UNL1       -0.2791
     21 C         140.2839  138.9570  158.8824 C.2     1  UNL1        0.2695
     22 O         139.6165  140.2215  158.4293 O.2     1  UNL1       -0.2681
     23 H         140.7697  137.7858  160.6397 H       1  UNL1        0.1552
     24 C         140.9035  138.0336  157.8757 C.ar    1  UNL1        0.1622
     25 N         140.0524  137.4002  156.8153 N.ar    1  UNL1       -0.2346
     26 C         140.6719  136.4769  155.8085 C.ar    1  UNL1        0.1287
     27 C         142.1426  136.1869  155.8622 C.ar    1  UNL1        0.1615
     28 F         142.7622  135.2636  154.8554 F       1  UNL1       -0.2025
     29 C         142.9938  136.8203  156.9226 C.ar    1  UNL1        0.0626
     30 C         142.3742  137.7436  157.9293 C.ar    1  UNL1        0.1644
     31 F         143.2254  138.3770  158.9897 F       1  UNL1       -0.2023
     32 C         141.8314  140.9632  166.6452 C.ar    1  UNL1        0.2204
     33 N         141.2082  141.1989  167.9891 N.ar    1  UNL1       -0.2097
     34 C         141.5081  140.2701  169.1281 C.ar    1  UNL1        0.1330
     35 C         142.4312  139.1057  168.9232 C.ar    1  UNL1        0.1784
     36 F         142.7310  138.1769  170.0623 F       1  UNL1       -0.2009
     37 C         143.0543  138.8700  167.5793 C.ar    1  UNL1        0.1330
     38 N         142.7545  139.7987  166.4403 N.ar    1  UNL1       -0.2097
@<TRIPOS>BOND
     1     1     2    1
     2     2     3    2
     3     3     4    1
     4     4    13    1
     5    13    14   ar
     6    14    15   ar
     7    15    20    1
     8    20    21   am
     9    21    22    2
    10    21    24    1
    11    24    25   ar
    12    25    26   ar
    13    26    27   ar
    14    27    28    1
    15    27    29   ar
    16    29    30   ar
    17    30    31    1
    18    15    16   ar
    19    16    17   ar
    20    17    18   ar
    21    18    19    1
    22     4     5    1
    23     5     6    1
    24     6    32    1
    25    32    33   ar
    26    33    34   ar
    27    34    35   ar
    28    35    36    1
    29    35    37   ar
    30    37    38   ar
    31     6     7    1
    32     8     7    1
    33     8     9    1
    34     9    10    1
    35    10     2    1
    36     8     4    1
    37    18    13   ar
    38    38    32   ar
    39    30    24   ar
    40     1    11    1
    41     1    12    1
    42    20    23    1
@<TRIPOS>MOLECULE
*****
 38 42 0 0 0
SMALL
GASTEIGER

@<TRIPOS>ATOM
      1 N         136.9884  139.5705  160.2911 N.pl3   1  UNL1       -0.3380
      2 C         137.8168  139.3342  161.5190 C.2     1  UNL1        0.1482
      3 N         138.4867  140.4876  162.2052 N.2     1  UNL1       -0.2491
      4 C         139.3151  140.2513  163.4332 C.3     1  UNL1        0.1277
      5 C         140.0888  141.1844  164.3168 C.3     1  UNL1        0.1202
      6 N         140.7255  140.3713  165.4047 N.pl3   1  UNL1       -0.2758
      7 C         140.3453  138.9357  165.1934 C.3     1  UNL1        0.0968
      8 C         139.4736  138.8616  163.9749 C.3     1  UNL1        0.0573
      9 C         138.8037  137.7082  163.2887 C.3     1  UNL1        0.0688
     10 S         137.9753  137.9445  162.0608 S.3     1  UNL1       -0.0807
     11 H         136.8843  140.4827  159.9355 H       1  UNL1        0.1442
     12 H         136.5487  138.8135  159.8407 H       1  UNL1        0.1442
     13 C         139.2479  141.6888  163.0099 C.ar    1  UNL1        0.0282
     14 C         139.9817  142.1447  161.7837 C.ar    1  UNL1        0.0145
     15 C         139.9145  143.5822  161.3605 C.ar    1  UNL1        0.0505
     16 C         139.1134  144.5638  162.1635 C.ar    1  UNL1        0.0170
     17 C         138.3795  144.1079  163.3897 C.ar    1  UNL1        0.0306
     18 C         138.4467  142.6703  163.8130 C.ar    1  UNL1        0.1380
     19 F         137.7129  142.2144  165.0392 F       1  UNL1       -0.2044
     20 N         140.6483  144.0382  160.1344 N.am    1  UNL1       -0.2791
     21 C         140.0329  143.8517  158.7792 C.2     1  UNL1        0.2695
     22 O         138.6837  143.2092  158.6502 O.2     1  UNL1       -0.2681
     23 H         141.5339  144.4599  160.2190 H       1  UNL1        0.1552
     24 C         140.7668  144.3077  157.5530 C.ar    1  UNL1        0.1622
     25 N         141.6785  143.3616  156.8294 N.ar    1  UNL1       -0.2346
     26 C         142.4124  143.8175  155.6032 C.ar    1  UNL1        0.1287
     27 C         142.2345  145.2196  155.1006 C.ar    1  UNL1        0.1615
     28 F         142.9684  145.6755  153.8744 F       1  UNL1       -0.2025
     29 C         141.3228  146.1657  155.8242 C.ar    1  UNL1        0.0626
     30 C         140.5889  145.7098  157.0504 C.ar    1  UNL1        0.1644
     31 F         139.6772  146.6559  157.7741 F       1  UNL1       -0.2023
     32 C         141.5906  140.9008  166.5099 C.ar    1  UNL1        0.2204
     33 N         142.5213  142.0479  166.2497 N.ar    1  UNL1       -0.2097
     34 C         143.3863  142.5773  167.3549 C.ar    1  UNL1        0.1330
     35 C         143.3206  141.9596  168.7202 C.ar    1  UNL1        0.1784
     36 F         144.1857  142.4891  169.8254 F       1  UNL1       -0.2009
     37 C         142.3899  140.8124  168.9804 C.ar    1  UNL1        0.1330
     38 N         141.5249  140.2830  167.8752 N.ar    1  UNL1       -0.2097
@<TRIPOS>BOND
     1     1     2    1
     2     2     3    2
     3     3     4    1
     4     4    13    1
     5    13    14   ar
     6    14    15   ar
     7    15    20    1
     8    20    21   am
     9    21    22    2
    10    21    24    1
    11    24    25   ar
    12    25    26   ar
    13    26    27   ar
    14    27    28    1
    15    27    29   ar
    16    29    30   ar
    17    30    31    1
    18    15    16   ar
    19    16    17   ar
    20    17    18   ar
    21    18    19    1
    22     4     5    1
    23     5     6    1
    24     6    32    1
    25    32    33   ar
    26    33    34   ar
    27    34    35   ar
    28    35    36    1
    29    35    37   ar
    30    37    38   ar
    31     6     7    1
    32     8     7    1
    33     8     9    1
    34     9    10    1
    35    10     2    1
    36     8     4    1
    37    18    13   ar
    38    38    32   ar
    39    30    24   ar
    40     1    11    1
    41     1    12    1
    42    20    23    1
@<TRIPOS>MOLECULE
*****
 38 42 0 0 0
SMALL
GASTEIGER

@<TRIPOS>ATOM
      1 N         141.0997  143.0922  154.9184 N.pl3   1  UNL1       -0.3380
      2 C         139.6119  142.9056  154.8780 C.2     1  UNL1        0.1482
      3 N         138.9589  141.8904  155.7684 N.2     1  UNL1       -0.2491
      4 C         137.4711  141.7039  155.7279 C.3     1  UNL1        0.1277
      5 C         136.5535  140.7879  156.4824 C.3     1  UNL1        0.1202
      6 N         135.1516  141.0505  156.0178 N.pl3   1  UNL1       -0.2758
      7 C         135.2028  142.1288  154.9763 C.3     1  UNL1        0.0968
      8 C         136.6363  142.5326  154.7972 C.3     1  UNL1        0.0573
      9 C         137.2894  143.5478  153.9068 C.3     1  UNL1        0.0688
     10 S         138.7772  143.7344  153.9472 S.3     1  UNL1       -0.0807
     11 H         141.6476  142.5482  155.5293 H       1  UNL1        0.1442
     12 H         141.5284  143.7585  154.3340 H       1  UNL1        0.1442
     13 C         138.1720  140.8071  156.7050 C.ar    1  UNL1        0.0282
     14 C         138.7109  139.4820  156.2537 C.ar    1  UNL1        0.0145
     15 C         139.4118  138.5853  157.2307 C.ar    1  UNL1        0.0505
     16 C         139.5739  139.0138  158.6591 C.ar    1  UNL1        0.0170
     17 C         139.0351  140.3389  159.1104 C.ar    1  UNL1        0.0306
     18 C         138.3341  141.2357  158.1333 C.ar    1  UNL1        0.1380
     19 F         137.7952  142.5608  158.5847 F       1  UNL1       -0.2044
     20 N         139.9507  137.2603  156.7794 N.am    1  UNL1       -0.2791
     21 C         141.3881  137.1355  156.3693 C.2     1  UNL1        0.2695
     22 O         142.2866  138.3357  156.4104 O.2     1  UNL1       -0.2681
     23 H         139.3609  136.4724  156.7524 H       1  UNL1        0.1552
     24 C         141.9269  135.8103  155.9180 C.ar    1  UNL1        0.1622
     25 N         141.5219  135.2499  154.5868 N.ar    1  UNL1       -0.2346
     26 C         142.0607  133.9248  154.1355 C.ar    1  UNL1        0.1287
     27 C         143.0046  133.1600  155.0154 C.ar    1  UNL1        0.1615
     28 F         143.5434  131.8349  154.5641 F       1  UNL1       -0.2025
     29 C         143.4096  133.7203  156.3466 C.ar    1  UNL1        0.0626
     30 C         142.8708  135.0455  156.7979 C.ar    1  UNL1        0.1644
     31 F         143.2758  135.6058  158.1290 F       1  UNL1       -0.2023
     32 C         133.9156  140.3567  156.5085 C.ar    1  UNL1        0.2204
     33 N         134.0289  139.2253  157.4868 N.ar    1  UNL1       -0.2097
     34 C         132.7928  138.5315  157.9775 C.ar    1  UNL1        0.1330
     35 C         131.4435  138.9691  157.4899 C.ar    1  UNL1        0.1784
     36 F         130.2074  138.2753  157.9806 F       1  UNL1       -0.2009
     37 C         131.3302  140.1005  156.5116 C.ar    1  UNL1        0.1330
     38 N         132.5662  140.7943  156.0209 N.ar    1  UNL1       -0.2097
@<TRIPOS>BOND
     1     1     2    1
     2     2     3    2
     3     3     4    1
     4     4    13    1
     5    13    14   ar
     6    14    15   ar
     7    15    20    1
     8    20    21   am
     9    21    22    2
    10    21    24    1
    11    24    25   ar
    12    25    26   ar
    13    26    27   ar
    14    27    28    1
    15    27    29   ar
    16    29    30   ar
    17    30    31    1
    18    15    16   ar
    19    16    17   ar
    20    17    18   ar
    21    18    19    1
    22     4     5    1
    23     5     6    1
    24     6    32    1
    25    32    33   ar
    26    33    34   ar
    27    34    35   ar
    28    35    36    1
    29    35    37   ar
    30    37    38   ar
    31     6     7    1
    32     8     7    1
    33     8     9    1
    34     9    10    1
    35    10     2    1
    36     8     4    1
    37    18    13   ar
    38    38    32   ar
    39    30    24   ar
    40     1    11    1
    41     1    12    1
    42    20    23    1
