@<TRIPOS>MOLECULE
*****
 55 62 0 0 0
SMALL
GASTEIGER

@<TRIPOS>ATOM
      1 C         139.0982  142.9211  156.8423 C.ar    1  UNL1        0.0177
      2 C         139.8349  142.7023  158.1306 C.ar    1  UNL1        0.0012
      3 C         139.3178  141.7118  159.1313 C.ar    1  UNL1       -0.0029
      4 C         138.0641  140.9400  158.8437 C.ar    1  UNL1       -0.0061
      5 C         137.3275  141.1588  157.5555 C.ar    1  UNL1       -0.0029
      6 C         137.8446  142.1493  156.5548 C.ar    1  UNL1        0.0012
      7 C         139.7746  148.7591  153.9771 C.ar    1  UNL1        0.2216
      8 N         140.7291  148.3166  152.9080 N.ar    1  UNL1       -0.2120
      9 C         141.1665  146.8834  152.8395 C.ar    1  UNL1        0.1048
     10 C         140.6494  145.8928  153.8402 C.ar    1  UNL1        0.0551
     11 C         141.0868  144.4596  153.7717 C.ar    1  UNL1        0.0061
     12 C         140.5698  143.4690  154.7725 C.ar    1  UNL1        0.0179
     13 C         139.6153  143.9117  155.8416 C.ar    1  UNL1        0.0829
     14 N         139.1779  145.3448  155.9101 N.ar    1  UNL1       -0.2264
     15 C         139.6950  146.3354  154.9094 C.ar    1  UNL1        0.1666
     16 N         139.2576  147.7686  154.9778 N.ar    1  UNL1       -0.1945
     17 N         138.4624  153.0587  154.1826 N.3     1  UNL1       -0.2686
     18 C         138.9134  152.4738  152.8771 C.3     1  UNL1        0.0939
     19 C         139.3509  151.0406  152.8086 C.3     1  UNL1        0.1109
     20 N         139.3372  150.1924  154.0456 N.pl3   1  UNL1       -0.2753
     21 C         138.8861  150.7773  155.3511 C.3     1  UNL1        0.1109
     22 C         138.4487  152.2104  155.4197 C.3     1  UNL1        0.0939
     23 C         138.0249  154.4919  154.2511 C.3     1  UNL1        0.0897
     24 C         138.5500  155.3852  155.3357 C.3     1  UNL1        0.0897
     25 C         138.2782  155.2411  157.9155 C.3     1  UNL1        0.0897
     26 N         137.7337  155.6241  156.5713 N.3     1  UNL1       -0.2691
     27 C         136.3731  156.2460  156.4627 C.3     1  UNL1        0.0897
     28 C         141.0072  142.0359  154.7040 C.ar    1  UNL1        0.0015
     29 C         142.2042  141.5790  155.4840 C.ar    1  UNL1        0.0000
     30 C         142.6416  140.1458  155.4156 C.ar    1  UNL1        0.0000
     31 C         141.8820  139.1695  154.5672 C.ar    1  UNL1        0.0000
     32 C         140.6850  139.6264  153.7872 C.ar    1  UNL1        0.0000
     33 C         140.2475  141.0596  153.8556 C.ar    1  UNL1        0.0000
     34 C         137.5470  139.9494  159.8445 C.3     1  UNL1        0.0991
     35 N         137.9557  140.0546  161.2839 N.3     1  UNL1       -0.2689
     36 C         138.6387  138.9005  161.9559 C.3     1  UNL1        0.0728
     37 C         139.0473  139.0057  163.3954 C.3     1  UNL1        0.0249
     38 C         138.7730  140.2650  164.1628 C.3     1  UNL1        0.0613
     39 C         138.0900  141.4191  163.4907 C.3     1  UNL1        0.0249
     40 C         137.6813  141.3139  162.0513 C.3     1  UNL1        0.0728
     41 C         139.1816  140.3702  165.6022 C.ar    1  UNL1        0.1396
     42 N         138.6857  139.5077  166.7248 N.ar    1  UNL1       -0.1336
     43 N         139.3555  139.9608  167.9882 N.ar    1  UNL1       -0.1293
     44 C         140.2654  141.1034  167.6463 C.ar    1  UNL1        0.1644
     45 N         140.1579  141.3563  166.1717 N.ar    1  UNL1       -0.3245
     46 H         140.6429  142.0482  165.6664 H       1  UNL1        0.1686
     47 C         141.1308  141.8601  168.6099 C.ar    1  UNL1        0.0550
     48 C         142.5575  141.4476  168.8200 C.ar    1  UNL1        0.0075
     49 C         143.4229  142.2043  169.7836 C.ar    1  UNL1        0.0340
     50 C         142.8616  143.3735  170.5371 C.ar    1  UNL1        0.1254
     51 N         143.7269  144.1301  171.5007 N.pl3   1  UNL1       -0.3426
     52 N         141.4347  143.7860  170.3270 N.ar    1  UNL1       -0.2295
     53 C         140.5694  143.0293  169.3635 C.ar    1  UNL1        0.1033
     54 H         144.6634  143.8594  171.6385 H       1  UNL1        0.1437
     55 H         143.3584  144.8975  171.9952 H       1  UNL1        0.1437
@<TRIPOS>BOND
     1    25    26    1
     2    26    27    1
     3    26    24    1
     4    24    23    1
     5    23    17    1
     6    17    18    1
     7    18    19    1
     8    19    20    1
     9    20     7    1
    10     7     8   ar
    11     8     9   ar
    12     9    10   ar
    13    10    11   ar
    14    11    12   ar
    15    12    28    1
    16    28    29   ar
    17    29    30   ar
    18    30    31   ar
    19    31    32   ar
    20    32    33   ar
    21    12    13   ar
    22    13     1    1
    23     1     2   ar
    24     2     3   ar
    25     3     4   ar
    26     4    34    1
    27    34    35    1
    28    35    36    1
    29    36    37    1
    30    37    38    1
    31    38    41    1
    32    41    42   ar
    33    42    43   ar
    34    43    44   ar
    35    44    47    1
    36    47    48   ar
    37    48    49   ar
    38    49    50   ar
    39    50    51    1
    40    50    52   ar
    41    52    53   ar
    42    44    45   ar
    43    38    39    1
    44    39    40    1
    45     4     5   ar
    46     5     6   ar
    47    13    14   ar
    48    14    15   ar
    49    15    16   ar
    50    20    21    1
    51    21    22    1
    52    22    17    1
    53    16     7   ar
    54    15    10   ar
    55    33    28   ar
    56     6     1   ar
    57    40    35    1
    58    45    41   ar
    59    53    47   ar
    60    51    54    1
    61    51    55    1
    62    45    46    1
@<TRIPOS>MOLECULE
*****
 55 62 0 0 0
SMALL
GASTEIGER

@<TRIPOS>ATOM
      1 C         140.2281  139.3631  156.9807 C.ar    1  UNL1        0.0177
      2 C         140.6574  140.2692  158.0963 C.ar    1  UNL1        0.0012
      3 C         141.6824  139.8042  159.0879 C.ar    1  UNL1       -0.0029
      4 C         142.2779  138.4330  158.9638 C.ar    1  UNL1       -0.0061
      5 C         141.8486  137.5270  157.8482 C.ar    1  UNL1       -0.0029
      6 C         140.8236  137.9920  156.8566 C.ar    1  UNL1        0.0012
      7 C         134.2549  140.8477  154.7746 C.ar    1  UNL1        0.2216
      8 N         134.6791  141.2679  153.3987 N.ar    1  UNL1       -0.2120
      9 C         136.1283  141.2231  153.0143 C.ar    1  UNL1        0.1048
     10 C         137.1532  140.7581  154.0059 C.ar    1  UNL1        0.0551
     11 C         138.6025  140.7134  153.6214 C.ar    1  UNL1        0.0061
     12 C         139.6274  140.2483  154.6130 C.ar    1  UNL1        0.0179
     13 C         139.2031  139.8281  155.9891 C.ar    1  UNL1        0.0829
     14 N         137.7539  139.8728  156.3734 N.ar    1  UNL1       -0.2264
     15 C         136.7290  140.3379  155.3819 C.ar    1  UNL1        0.1666
     16 N         135.2798  140.3826  155.7662 N.ar    1  UNL1       -0.1945
     17 N         129.9072  140.9819  155.9279 N.3     1  UNL1       -0.2686
     18 C         130.8709  140.1590  156.7304 C.3     1  UNL1        0.0939
     19 C         132.3201  140.1142  156.3459 C.3     1  UNL1        0.1109
     20 N         132.8056  140.8924  155.1591 N.pl3   1  UNL1       -0.2753
     21 C         131.8419  141.7154  154.3566 C.3     1  UNL1        0.1109
     22 C         130.3927  141.7602  154.7410 C.3     1  UNL1        0.0939
     23 C         128.4580  141.0267  156.3123 C.3     1  UNL1        0.0897
     24 C         127.7983  139.8114  156.8934 C.3     1  UNL1        0.0897
     25 C         127.0273  140.6893  159.2139 C.3     1  UNL1        0.0897
     26 N         127.7103  139.6449  158.3816 N.3     1  UNL1       -0.2691
     27 C         128.3052  138.4341  159.0373 C.3     1  UNL1        0.0897
     28 C         141.0766  140.2036  154.2286 C.ar    1  UNL1        0.0015
     29 C         141.9939  141.3205  154.6301 C.ar    1  UNL1        0.0000
     30 C         143.4431  141.2757  154.2458 C.ar    1  UNL1        0.0000
     31 C         143.9751  140.1141  153.4599 C.ar    1  UNL1        0.0000
     32 C         143.0579  138.9972  153.0584 C.ar    1  UNL1        0.0000
     33 C         141.6086  139.0419  153.4428 C.ar    1  UNL1        0.0000
     34 C         143.3029  137.9680  159.9554 C.3     1  UNL1        0.0991
     35 N         143.1388  138.2911  161.4111 N.3     1  UNL1       -0.2689
     36 C         142.0159  137.6774  162.1936 C.3     1  UNL1        0.0728
     37 C         141.8518  138.0005  163.6492 C.3     1  UNL1        0.0249
     38 C         142.8107  138.9372  164.3222 C.3     1  UNL1        0.0613
     39 C         143.9337  139.5509  163.5396 C.3     1  UNL1        0.0249
     40 C         144.0978  139.2278  162.0841 C.3     1  UNL1        0.0728
     41 C         142.6467  139.2603  165.7778 C.ar    1  UNL1        0.1396
     42 N         143.4180  138.6480  166.9092 N.ar    1  UNL1       -0.1336
     43 N         142.9306  139.2617  168.1882 N.ar    1  UNL1       -0.1293
     44 C         141.8581  140.2534  167.8472 C.ar    1  UNL1        0.1644
     45 N         141.6826  140.2525  166.3575 N.ar    1  UNL1       -0.3245
     46 H         141.0464  140.8060  165.8494 H       1  UNL1        0.1686
     47 C         141.0949  141.0977  168.8243 C.ar    1  UNL1        0.0550
     48 C         141.4070  142.5589  168.9568 C.ar    1  UNL1        0.0075
     49 C         140.6439  143.4032  169.9339 C.ar    1  UNL1        0.0340
     50 C         139.5687  142.7863  170.7786 C.ar    1  UNL1        0.1254
     51 N         138.8056  143.6306  171.7557 N.pl3   1  UNL1       -0.3426
     52 N         139.2567  141.3250  170.6461 N.ar    1  UNL1       -0.2295
     53 C         140.0198  140.4808  169.6690 C.ar    1  UNL1        0.1033
     54 H         139.0104  144.5896  171.8427 H       1  UNL1        0.1437
     55 H         138.1000  143.2257  172.3101 H       1  UNL1        0.1437
@<TRIPOS>BOND
     1    25    26    1
     2    26    27    1
     3    26    24    1
     4    24    23    1
     5    23    17    1
     6    17    18    1
     7    18    19    1
     8    19    20    1
     9    20     7    1
    10     7     8   ar
    11     8     9   ar
    12     9    10   ar
    13    10    11   ar
    14    11    12   ar
    15    12    28    1
    16    28    29   ar
    17    29    30   ar
    18    30    31   ar
    19    31    32   ar
    20    32    33   ar
    21    12    13   ar
    22    13     1    1
    23     1     2   ar
    24     2     3   ar
    25     3     4   ar
    26     4    34    1
    27    34    35    1
    28    35    36    1
    29    36    37    1
    30    37    38    1
    31    38    41    1
    32    41    42   ar
    33    42    43   ar
    34    43    44   ar
    35    44    47    1
    36    47    48   ar
    37    48    49   ar
    38    49    50   ar
    39    50    51    1
    40    50    52   ar
    41    52    53   ar
    42    44    45   ar
    43    38    39    1
    44    39    40    1
    45     4     5   ar
    46     5     6   ar
    47    13    14   ar
    48    14    15   ar
    49    15    16   ar
    50    20    21    1
    51    21    22    1
    52    22    17    1
    53    16     7   ar
    54    15    10   ar
    55    33    28   ar
    56     6     1   ar
    57    40    35    1
    58    45    41   ar
    59    53    47   ar
    60    51    54    1
    61    51    55    1
    62    45    46    1
@<TRIPOS>MOLECULE
*****
 55 62 0 0 0
SMALL
GASTEIGER

@<TRIPOS>ATOM
      1 C         141.3044  141.8412  156.4815 C.ar    1  UNL1        0.0177
      2 C         140.9258  142.3506  157.8406 C.ar    1  UNL1        0.0012
      3 C         139.9506  141.5839  158.6840 C.ar    1  UNL1       -0.0029
      4 C         139.3541  140.3079  158.1682 C.ar    1  UNL1       -0.0061
      5 C         139.7327  139.7985  156.8092 C.ar    1  UNL1       -0.0029
      6 C         140.7079  140.5652  155.9658 C.ar    1  UNL1        0.0012
      7 C         147.1325  143.3829  153.9505 C.ar    1  UNL1        0.2216
      8 N         146.6565  144.5286  153.1076 N.ar    1  UNL1       -0.2120
      9 C         145.2052  144.9077  153.1080 C.ar    1  UNL1        0.1048
     10 C         144.2300  144.1411  153.9514 C.ar    1  UNL1        0.0551
     11 C         142.7787  144.5203  153.9518 C.ar    1  UNL1        0.0061
     12 C         141.8035  143.7536  154.7952 C.ar    1  UNL1        0.0179
     13 C         142.2796  142.6078  155.6381 C.ar    1  UNL1        0.0829
     14 N         143.7309  142.2287  155.6377 N.ar    1  UNL1       -0.2264
     15 C         144.7061  142.9953  154.7943 C.ar    1  UNL1        0.1666
     16 N         146.1573  142.6162  154.7939 N.ar    1  UNL1       -0.1945
     17 N         151.4865  142.2454  153.9492 N.3     1  UNL1       -0.2686
     18 C         150.5044  141.4526  154.7597 C.3     1  UNL1        0.0939
     19 C         149.0531  141.8318  154.7602 C.3     1  UNL1        0.1109
     20 N         148.5839  143.0037  153.9501 N.pl3   1  UNL1       -0.2753
     21 C         149.5659  143.7965  153.1395 C.3     1  UNL1        0.1109
     22 C         151.0172  143.4174  153.1390 C.3     1  UNL1        0.0939
     23 C         152.9377  141.8663  153.9487 C.3     1  UNL1        0.0897
     24 C         153.9794  142.8872  153.5985 C.3     1  UNL1        0.0897
     25 C         153.8662  144.7791  155.3755 C.3     1  UNL1        0.0897
     26 N         154.6335  143.6932  154.6814 N.3     1  UNL1       -0.2691
     27 C         156.0550  143.4133  155.0700 C.3     1  UNL1        0.0897
     28 C         140.3522  144.1327  154.7956 C.ar    1  UNL1        0.0015
     29 C         139.8856  145.3130  155.5952 C.ar    1  UNL1        0.0000
     30 C         138.4343  145.6922  155.5957 C.ar    1  UNL1        0.0000
     31 C         137.4496  144.8910  154.7966 C.ar    1  UNL1        0.0000
     32 C         137.9161  143.7108  153.9971 C.ar    1  UNL1        0.0000
     33 C         139.3675  143.3316  153.9966 C.ar    1  UNL1        0.0000
     34 C         138.3789  139.5412  159.0116 C.3     1  UNL1        0.0991
     35 N         138.5017  139.5620  160.5065 N.3     1  UNL1       -0.2689
     36 C         139.4045  138.5843  161.1985 C.3     1  UNL1        0.0728
     37 C         139.5274  138.6050  162.6933 C.3     1  UNL1        0.0249
     38 C         138.7474  139.6036  163.4961 C.3     1  UNL1        0.0613
     39 C         137.8445  140.5814  162.8041 C.3     1  UNL1        0.0249
     40 C         137.7217  140.5606  161.3093 C.3     1  UNL1        0.0728
     41 C         138.8702  139.6244  164.9909 C.ar    1  UNL1        0.1396
     42 N         138.0815  138.7854  165.9522 N.ar    1  UNL1       -0.1336
     43 N         138.5271  139.1303  167.3423 N.ar    1  UNL1       -0.1293
     44 C         139.5913  140.1825  167.2401 C.ar    1  UNL1        0.1644
     45 N         139.8034  140.4878  165.7869 N.ar    1  UNL1       -0.3245
     46 H         140.4427  141.1404  165.4200 H       1  UNL1        0.1686
     47 C         140.3162  140.8178  168.3895 C.ar    1  UNL1        0.0550
     48 C         140.4806  142.3078  168.4410 C.ar    1  UNL1        0.0075
     49 C         141.2055  142.9431  169.5903 C.ar    1  UNL1        0.0340
     50 C         141.7660  142.0884  170.6881 C.ar    1  UNL1        0.1254
     51 N         142.4909  142.7237  171.8374 N.pl3   1  UNL1       -0.3426
     52 N         141.6016  140.5982  170.6366 N.ar    1  UNL1       -0.2295
     53 C         140.8767  139.9630  169.4873 C.ar    1  UNL1        0.1033
     54 H         142.5988  143.7016  171.8712 H       1  UNL1        0.1437
     55 H         142.8588  142.1626  172.5579 H       1  UNL1        0.1437
@<TRIPOS>BOND
     1    25    26    1
     2    26    27    1
     3    26    24    1
     4    24    23    1
     5    23    17    1
     6    17    18    1
     7    18    19    1
     8    19    20    1
     9    20     7    1
    10     7     8   ar
    11     8     9   ar
    12     9    10   ar
    13    10    11   ar
    14    11    12   ar
    15    12    28    1
    16    28    29   ar
    17    29    30   ar
    18    30    31   ar
    19    31    32   ar
    20    32    33   ar
    21    12    13   ar
    22    13     1    1
    23     1     2   ar
    24     2     3   ar
    25     3     4   ar
    26     4    34    1
    27    34    35    1
    28    35    36    1
    29    36    37    1
    30    37    38    1
    31    38    41    1
    32    41    42   ar
    33    42    43   ar
    34    43    44   ar
    35    44    47    1
    36    47    48   ar
    37    48    49   ar
    38    49    50   ar
    39    50    51    1
    40    50    52   ar
    41    52    53   ar
    42    44    45   ar
    43    38    39    1
    44    39    40    1
    45     4     5   ar
    46     5     6   ar
    47    13    14   ar
    48    14    15   ar
    49    15    16   ar
    50    20    21    1
    51    21    22    1
    52    22    17    1
    53    16     7   ar
    54    15    10   ar
    55    33    28   ar
    56     6     1   ar
    57    40    35    1
    58    45    41   ar
    59    53    47   ar
    60    51    54    1
    61    51    55    1
    62    45    46    1
@<TRIPOS>MOLECULE
*****
 55 62 0 0 0
SMALL
GASTEIGER

@<TRIPOS>ATOM
      1 C         143.2653  139.0072  156.4201 C.ar    1  UNL1        0.0177
      2 C         144.5190  139.7809  156.1381 C.ar    1  UNL1        0.0012
      3 C         144.8723  140.9700  156.9815 C.ar    1  UNL1       -0.0029
      4 C         143.9718  141.3853  158.1070 C.ar    1  UNL1       -0.0061
      5 C         142.7181  140.6115  158.3890 C.ar    1  UNL1       -0.0029
      6 C         142.3648  139.4225  157.5456 C.ar    1  UNL1        0.0012
      7 C         142.8889  132.6756  154.8331 C.ar    1  UNL1        0.2216
      8 N         142.1939  132.8688  153.5180 N.ar    1  UNL1       -0.2120
      9 C         141.8522  134.2511  153.0463 C.ar    1  UNL1        0.1048
     10 C         142.2055  135.4401  153.8897 C.ar    1  UNL1        0.0551
     11 C         141.8638  136.8224  153.4180 C.ar    1  UNL1        0.0061
     12 C         142.2170  138.0115  154.2614 C.ar    1  UNL1        0.0179
     13 C         142.9120  137.8182  155.5767 C.ar    1  UNL1        0.0829
     14 N         143.2537  136.4359  156.0483 N.ar    1  UNL1       -0.2264
     15 C         142.9004  135.2469  155.2049 C.ar    1  UNL1        0.1666
     16 N         143.2421  133.8646  155.6766 N.ar    1  UNL1       -0.1945
     17 N         143.9141  128.5287  156.2484 N.3     1  UNL1       -0.2686
     18 C         142.5385  128.8252  155.7290 C.3     1  UNL1        0.0939
     19 C         142.1967  130.2076  155.2572 C.3     1  UNL1        0.1109
     20 N         143.2306  131.2933  155.3049 N.pl3   1  UNL1       -0.2753
     21 C         144.6062  130.9967  155.8242 C.3     1  UNL1        0.1109
     22 C         144.9480  129.6145  156.2960 C.3     1  UNL1        0.0939
     23 C         144.2559  127.1465  156.7201 C.3     1  UNL1        0.0897
     24 C         144.5142  126.8933  158.1758 C.3     1  UNL1        0.0897
     25 C         142.1036  127.1104  159.1203 C.3     1  UNL1        0.0897
     26 N         143.5671  127.4268  159.2095 N.3     1  UNL1       -0.2691
     27 C         144.0836  128.2767  160.3324 C.3     1  UNL1        0.0897
     28 C         141.8753  139.3937  153.7898 C.ar    1  UNL1        0.0015
     29 C         140.5908  140.0373  154.2211 C.ar    1  UNL1        0.0000
     30 C         140.2491  141.4196  153.7494 C.ar    1  UNL1        0.0000
     31 C         141.1919  142.1584  152.8464 C.ar    1  UNL1        0.0000
     32 C         142.4763  141.5149  152.4150 C.ar    1  UNL1        0.0000
     33 C         142.8181  140.1325  152.8867 C.ar    1  UNL1        0.0000
     34 C         144.3250  142.5743  158.9505 C.3     1  UNL1        0.0991
     35 N         144.1255  142.5256  160.4364 N.3     1  UNL1       -0.2689
     36 C         143.2328  143.5276  161.1065 C.3     1  UNL1        0.0728
     37 C         143.0333  143.4790  162.5924 C.3     1  UNL1        0.0249
     38 C         143.7265  142.4283  163.4082 C.3     1  UNL1        0.0613
     39 C         144.6193  141.4263  162.7380 C.3     1  UNL1        0.0249
     40 C         144.8188  141.4750  161.2522 C.3     1  UNL1        0.0728
     41 C         143.5271  142.3796  164.8940 C.ar    1  UNL1        0.1396
     42 N         144.2526  143.2126  165.9088 N.ar    1  UNL1       -0.1336
     43 N         143.7410  142.8372  167.2680 N.ar    1  UNL1       -0.1293
     44 C         142.6992  141.7722  167.0932 C.ar    1  UNL1        0.1644
     45 N         142.5671  141.4894  165.6260 N.ar    1  UNL1       -0.3245
     46 H         141.9572  140.8345  165.2156 H       1  UNL1        0.1686
     47 C         141.9255  141.1068  168.1926 C.ar    1  UNL1        0.0550
     48 C         140.5738  141.6286  168.5804 C.ar    1  UNL1        0.0075
     49 C         139.8001  140.9632  169.6798 C.ar    1  UNL1        0.0340
     50 C         140.3781  139.7760  170.3913 C.ar    1  UNL1        0.1254
     51 N         139.6044  139.1106  171.4906 N.pl3   1  UNL1       -0.3426
     52 N         141.7299  139.2541  170.0034 N.ar    1  UNL1       -0.2295
     53 C         142.5035  139.9195  168.9041 C.ar    1  UNL1        0.1033
     54 H         138.7172  139.4531  171.7452 H       1  UNL1        0.1437
     55 H         139.9838  138.3314  171.9576 H       1  UNL1        0.1437
@<TRIPOS>BOND
     1    25    26    1
     2    26    27    1
     3    26    24    1
     4    24    23    1
     5    23    17    1
     6    17    18    1
     7    18    19    1
     8    19    20    1
     9    20     7    1
    10     7     8   ar
    11     8     9   ar
    12     9    10   ar
    13    10    11   ar
    14    11    12   ar
    15    12    28    1
    16    28    29   ar
    17    29    30   ar
    18    30    31   ar
    19    31    32   ar
    20    32    33   ar
    21    12    13   ar
    22    13     1    1
    23     1     2   ar
    24     2     3   ar
    25     3     4   ar
    26     4    34    1
    27    34    35    1
    28    35    36    1
    29    36    37    1
    30    37    38    1
    31    38    41    1
    32    41    42   ar
    33    42    43   ar
    34    43    44   ar
    35    44    47    1
    36    47    48   ar
    37    48    49   ar
    38    49    50   ar
    39    50    51    1
    40    50    52   ar
    41    52    53   ar
    42    44    45   ar
    43    38    39    1
    44    39    40    1
    45     4     5   ar
    46     5     6   ar
    47    13    14   ar
    48    14    15   ar
    49    15    16   ar
    50    20    21    1
    51    21    22    1
    52    22    17    1
    53    16     7   ar
    54    15    10   ar
    55    33    28   ar
    56     6     1   ar
    57    40    35    1
    58    45    41   ar
    59    53    47   ar
    60    51    54    1
    61    51    55    1
    62    45    46    1
@<TRIPOS>MOLECULE
*****
 55 62 0 0 0
SMALL
GASTEIGER

@<TRIPOS>ATOM
      1 C         141.8126  140.2186  160.0212 C.ar    1  UNL1        0.0177
      2 C         142.8654  140.7422  160.9525 C.ar    1  UNL1        0.0012
      3 C         142.4752  141.6013  162.1186 C.ar    1  UNL1       -0.0029
      4 C         141.0321  141.9367  162.3533 C.ar    1  UNL1       -0.0061
      5 C         139.9793  141.4130  161.4220 C.ar    1  UNL1       -0.0029
      6 C         140.3695  140.5540  160.2559 C.ar    1  UNL1        0.0012
      7 C         143.4523  134.7043  156.9141 C.ar    1  UNL1        0.2216
      8 N         143.6080  135.3138  155.5524 N.ar    1  UNL1       -0.2120
      9 C         143.3735  136.7824  155.3568 C.ar    1  UNL1        0.1048
     10 C         142.9833  137.6414  156.5229 C.ar    1  UNL1        0.0551
     11 C         142.7488  139.1101  156.3273 C.ar    1  UNL1        0.0061
     12 C         142.3585  139.9691  157.4934 C.ar    1  UNL1        0.0179
     13 C         142.2028  139.3595  158.8551 C.ar    1  UNL1        0.0829
     14 N         142.4373  137.8910  159.0507 N.ar    1  UNL1       -0.2264
     15 C         142.8275  137.0319  157.8846 C.ar    1  UNL1        0.1666
     16 N         143.0620  135.5634  158.0802 N.ar    1  UNL1       -0.1945
     17 N         144.1557  130.2985  157.5010 N.3     1  UNL1       -0.2686
     18 C         145.1184  131.2948  158.0759 C.3     1  UNL1        0.0939
     19 C         144.8839  132.7634  157.8803 C.3     1  UNL1        0.1109
     20 N         143.6868  133.2357  157.1097 N.pl3   1  UNL1       -0.2753
     21 C         142.7241  132.2394  156.5348 C.3     1  UNL1        0.1109
     22 C         142.9585  130.7708  156.7304 C.3     1  UNL1        0.0939
     23 C         144.3901  128.8299  157.6966 C.3     1  UNL1        0.0897
     24 C         144.8350  128.3129  159.0325 C.3     1  UNL1        0.0897
     25 C         142.3913  127.7865  159.7408 C.3     1  UNL1        0.0897
     26 N         143.8669  127.5798  159.9133 N.3     1  UNL1       -0.2691
     27 C         144.3746  126.6402  160.9665 C.3     1  UNL1        0.0897
     28 C         142.1241  141.4377  157.2978 C.ar    1  UNL1        0.0015
     29 C         140.8661  141.9145  156.6342 C.ar    1  UNL1        0.0000
     30 C         140.6316  143.3831  156.4386 C.ar    1  UNL1        0.0000
     31 C         141.6550  144.3749  156.9066 C.ar    1  UNL1        0.0000
     32 C         142.9129  143.8981  157.5701 C.ar    1  UNL1        0.0000
     33 C         143.1474  142.4295  157.7658 C.ar    1  UNL1        0.0000
     34 C         140.6418  142.7957  163.5194 C.3     1  UNL1        0.0991
     35 N         140.3510  142.1671  164.8500 N.3     1  UNL1       -0.2689
     36 C         139.7322  140.8023  164.9154 C.3     1  UNL1        0.0728
     37 C         139.4414  140.1737  166.2460 C.3     1  UNL1        0.0249
     38 C         139.7695  140.9099  167.5111 C.3     1  UNL1        0.0613
     39 C         140.3883  142.2747  167.4455 C.3     1  UNL1        0.0249
     40 C         140.6791  142.9033  166.1150 C.3     1  UNL1        0.0728
     41 C         139.4787  140.2813  168.8416 C.ar    1  UNL1        0.1396
     42 N         140.4487  140.1290  169.9756 N.ar    1  UNL1       -0.1336
     43 N         139.7364  139.4482  171.1066 N.ar    1  UNL1       -0.1293
     44 C         138.3261  139.1799  170.6715 C.ar    1  UNL1        0.1644
     45 N         138.1669  139.6947  169.2717 N.ar    1  UNL1       -0.3245
     46 H         137.3456  139.6547  168.7303 H       1  UNL1        0.1686
     47 C         137.2619  138.5136  171.4923 C.ar    1  UNL1        0.0550
     48 C         137.5879  137.2844  172.2878 C.ar    1  UNL1        0.0075
     49 C         136.5237  136.6181  173.1085 C.ar    1  UNL1        0.0340
     50 C         135.1335  137.1810  173.1338 C.ar    1  UNL1        0.1254
     51 N         134.0694  136.5148  173.9545 N.pl3   1  UNL1       -0.3426
     52 N         134.8076  138.4103  172.3382 N.ar    1  UNL1       -0.2295
     53 C         135.8718  139.0765  171.5176 C.ar    1  UNL1        0.1033
     54 H         134.2834  135.7080  174.4766 H       1  UNL1        0.1437
     55 H         133.1570  136.8842  173.9711 H       1  UNL1        0.1437
@<TRIPOS>BOND
     1    25    26    1
     2    26    27    1
     3    26    24    1
     4    24    23    1
     5    23    17    1
     6    17    18    1
     7    18    19    1
     8    19    20    1
     9    20     7    1
    10     7     8   ar
    11     8     9   ar
    12     9    10   ar
    13    10    11   ar
    14    11    12   ar
    15    12    28    1
    16    28    29   ar
    17    29    30   ar
    18    30    31   ar
    19    31    32   ar
    20    32    33   ar
    21    12    13   ar
    22    13     1    1
    23     1     2   ar
    24     2     3   ar
    25     3     4   ar
    26     4    34    1
    27    34    35    1
    28    35    36    1
    29    36    37    1
    30    37    38    1
    31    38    41    1
    32    41    42   ar
    33    42    43   ar
    34    43    44   ar
    35    44    47    1
    36    47    48   ar
    37    48    49   ar
    38    49    50   ar
    39    50    51    1
    40    50    52   ar
    41    52    53   ar
    42    44    45   ar
    43    38    39    1
    44    39    40    1
    45     4     5   ar
    46     5     6   ar
    47    13    14   ar
    48    14    15   ar
    49    15    16   ar
    50    20    21    1
    51    21    22    1
    52    22    17    1
    53    16     7   ar
    54    15    10   ar
    55    33    28   ar
    56     6     1   ar
    57    40    35    1
    58    45    41   ar
    59    53    47   ar
    60    51    54    1
    61    51    55    1
    62    45    46    1
@<TRIPOS>MOLECULE
*****
 55 62 0 0 0
SMALL
GASTEIGER

@<TRIPOS>ATOM
      1 C         141.6764  140.5308  156.5324 C.ar    1  UNL1        0.0177
      2 C         141.2160  141.2345  157.7746 C.ar    1  UNL1        0.0012
      3 C         140.3953  140.4995  158.7925 C.ar    1  UNL1       -0.0029
      4 C         140.0350  139.0608  158.5683 C.ar    1  UNL1       -0.0061
      5 C         140.4954  138.3571  157.3262 C.ar    1  UNL1       -0.0029
      6 C         141.3161  139.0921  156.3083 C.ar    1  UNL1        0.0012
      7 C         147.1308  142.7508  153.6915 C.ar    1  UNL1        0.2216
      8 N         146.4553  143.4783  152.5671 N.ar    1  UNL1       -0.2120
      9 C         144.9592  143.4709  152.4607 C.ar    1  UNL1        0.1048
     10 C         144.1385  142.7359  153.4786 C.ar    1  UNL1        0.0551
     11 C         142.6422  142.7285  153.3721 C.ar    1  UNL1        0.0061
     12 C         141.8215  141.9934  154.3901 C.ar    1  UNL1        0.0179
     13 C         142.4971  141.2658  155.5145 C.ar    1  UNL1        0.0829
     14 N         143.9933  141.2733  155.6210 N.ar    1  UNL1       -0.2264
     15 C         144.8139  142.0083  154.6030 C.ar    1  UNL1        0.1666
     16 N         146.3101  142.0157  154.7095 N.ar    1  UNL1       -0.1945
     17 N         151.6195  142.7730  154.0111 N.3     1  UNL1       -0.2686
     18 C         150.9332  143.6725  153.0262 C.3     1  UNL1        0.0939
     19 C         149.4370  143.6651  152.9197 C.3     1  UNL1        0.1109
     20 N         148.6271  142.7582  153.7980 N.pl3   1  UNL1       -0.2753
     21 C         149.3133  141.8586  154.7829 C.3     1  UNL1        0.1109
     22 C         150.8095  141.8660  154.8894 C.3     1  UNL1        0.0939
     23 C         153.1156  142.7804  154.1176 C.3     1  UNL1        0.0897
     24 C         153.9434  142.0499  153.1022 C.3     1  UNL1        0.0897
     25 C         155.4710  140.0271  153.6723 C.3     1  UNL1        0.0897
     26 N         154.1457  140.5686  153.2247 N.3     1  UNL1       -0.2691
     27 C         153.0226  139.6289  152.8998 C.3     1  UNL1        0.0897
     28 C         140.3254  141.9860  154.2836 C.ar    1  UNL1        0.0015
     29 C         139.6310  140.8755  153.5523 C.ar    1  UNL1        0.0000
     30 C         138.1348  140.8681  153.4459 C.ar    1  UNL1        0.0000
     31 C         137.3330  141.9711  154.0707 C.ar    1  UNL1        0.0000
     32 C         138.0273  143.0815  154.8019 C.ar    1  UNL1        0.0000
     33 C         139.5235  143.0890  154.9084 C.ar    1  UNL1        0.0000
     34 C         139.2143  138.3257  159.5863 C.3     1  UNL1        0.0991
     35 N         139.3301  138.6786  161.0396 N.3     1  UNL1       -0.2689
     36 C         138.2911  139.5463  161.6858 C.3     1  UNL1        0.0728
     37 C         138.4069  139.8992  163.1391 C.3     1  UNL1        0.0249
     38 C         139.5617  139.3844  163.9462 C.3     1  UNL1        0.0613
     39 C         140.6007  138.5167  163.2999 C.3     1  UNL1        0.0249
     40 C         140.4849  138.1638  161.8467 C.3     1  UNL1        0.0728
     41 C         139.6775  139.7373  165.3995 C.ar    1  UNL1        0.1396
     42 N         138.8134  139.2100  166.5064 N.ar    1  UNL1       -0.1336
     43 N         139.2796  139.8262  167.7921 N.ar    1  UNL1       -0.1293
     44 C         140.4319  140.7344  167.4797 C.ar    1  UNL1        0.1644
     45 N         140.6778  140.6794  166.0010 N.ar    1  UNL1       -0.3245
     46 H         141.3735  141.1747  165.5113 H       1  UNL1        0.1686
     47 C         141.2029  141.5537  168.4718 C.ar    1  UNL1        0.0550
     48 C         142.6949  141.6590  168.3593 C.ar    1  UNL1        0.0075
     49 C         143.4659  142.4782  169.3514 C.ar    1  UNL1        0.0340
     50 C         142.7449  143.1922  170.4561 C.ar    1  UNL1        0.1254
     51 N         143.5159  144.0115  171.4482 N.pl3   1  UNL1       -0.3426
     52 N         141.2527  143.0869  170.5686 N.ar    1  UNL1       -0.2295
     53 C         140.4818  142.2676  169.5765 C.ar    1  UNL1        0.1033
     54 H         144.4952  144.0806  171.3743 H       1  UNL1        0.1437
     55 H         143.0426  144.4801  172.1732 H       1  UNL1        0.1437
@<TRIPOS>BOND
     1    25    26    1
     2    26    27    1
     3    26    24    1
     4    24    23    1
     5    23    17    1
     6    17    18    1
     7    18    19    1
     8    19    20    1
     9    20     7    1
    10     7     8   ar
    11     8     9   ar
    12     9    10   ar
    13    10    11   ar
    14    11    12   ar
    15    12    28    1
    16    28    29   ar
    17    29    30   ar
    18    30    31   ar
    19    31    32   ar
    20    32    33   ar
    21    12    13   ar
    22    13     1    1
    23     1     2   ar
    24     2     3   ar
    25     3     4   ar
    26     4    34    1
    27    34    35    1
    28    35    36    1
    29    36    37    1
    30    37    38    1
    31    38    41    1
    32    41    42   ar
    33    42    43   ar
    34    43    44   ar
    35    44    47    1
    36    47    48   ar
    37    48    49   ar
    38    49    50   ar
    39    50    51    1
    40    50    52   ar
    41    52    53   ar
    42    44    45   ar
    43    38    39    1
    44    39    40    1
    45     4     5   ar
    46     5     6   ar
    47    13    14   ar
    48    14    15   ar
    49    15    16   ar
    50    20    21    1
    51    21    22    1
    52    22    17    1
    53    16     7   ar
    54    15    10   ar
    55    33    28   ar
    56     6     1   ar
    57    40    35    1
    58    45    41   ar
    59    53    47   ar
    60    51    54    1
    61    51    55    1
    62    45    46    1
@<TRIPOS>MOLECULE
*****
 55 62 0 0 0
SMALL
GASTEIGER

@<TRIPOS>ATOM
      1 C         140.1339  139.4476  156.3699 C.ar    1  UNL1        0.0177
      2 C         141.1539  140.5469  156.4059 C.ar    1  UNL1        0.0012
      3 C         140.9034  141.7757  157.2288 C.ar    1  UNL1       -0.0029
      4 C         139.6329  141.9053  158.0157 C.ar    1  UNL1       -0.0061
      5 C         138.6130  140.8061  157.9797 C.ar    1  UNL1       -0.0029
      6 C         138.8635  139.5772  157.1568 C.ar    1  UNL1        0.0012
      7 C         142.1436  133.3449  155.1580 C.ar    1  UNL1        0.2216
      8 N         141.7649  133.3241  153.7067 N.ar    1  UNL1       -0.2120
      9 C         141.1358  134.5321  153.0784 C.ar    1  UNL1        0.1048
     10 C         140.8854  135.7610  153.9013 C.ar    1  UNL1        0.0551
     11 C         140.2562  136.9690  153.2728 C.ar    1  UNL1        0.0061
     12 C         140.0057  138.1979  154.0957 C.ar    1  UNL1        0.0179
     13 C         140.3844  138.2187  155.5470 C.ar    1  UNL1        0.0829
     14 N         141.0135  137.0107  156.1754 N.ar    1  UNL1       -0.2264
     15 C         141.2640  135.7818  155.3525 C.ar    1  UNL1        0.1666
     16 N         141.8931  134.5738  155.9809 N.ar    1  UNL1       -0.1945
     17 N         144.0309  129.7208  157.0433 N.3     1  UNL1       -0.2686
     18 C         144.3384  131.0891  157.5755 C.3     1  UNL1        0.0939
     19 C         143.7093  132.2971  156.9471 C.3     1  UNL1        0.1109
     20 N         142.7727  132.1369  155.7864 N.pl3   1  UNL1       -0.2753
     21 C         142.4652  130.7686  155.2542 C.3     1  UNL1        0.1109
     22 C         143.0943  129.5606  155.8826 C.3     1  UNL1        0.0939
     23 C         144.6600  128.5128  157.6716 C.3     1  UNL1        0.0897
     24 C         144.8992  128.4762  159.1519 C.3     1  UNL1        0.0897
     25 C         144.8149  126.6129  160.9606 C.3     1  UNL1        0.0897
     26 N         144.1081  127.5398  160.0166 N.3     1  UNL1       -0.2691
     27 C         142.6103  127.5305  159.9371 C.3     1  UNL1        0.0897
     28 C         139.3766  139.4059  153.4673 C.ar    1  UNL1        0.0015
     29 C         140.2350  140.4286  152.7836 C.ar    1  UNL1        0.0000
     30 C         139.6059  141.6366  152.1552 C.ar    1  UNL1        0.0000
     31 C         138.1184  141.8220  152.2106 C.ar    1  UNL1        0.0000
     32 C         137.2601  140.7995  152.8943 C.ar    1  UNL1        0.0000
     33 C         137.8892  139.5914  153.5227 C.ar    1  UNL1        0.0000
     34 C         139.3825  143.1342  158.8386 C.3     1  UNL1        0.0991
     35 N         139.5726  143.0924  160.3259 N.3     1  UNL1       -0.2689
     36 C         138.4067  142.7996  161.2231 C.3     1  UNL1        0.0728
     37 C         138.5969  142.7578  162.7105 C.3     1  UNL1        0.0249
     38 C         139.9529  143.0089  163.3006 C.3     1  UNL1        0.0613
     39 C         141.1187  143.3018  162.4033 C.3     1  UNL1        0.0249
     40 C         140.9286  143.3435  160.9160 C.3     1  UNL1        0.0728
     41 C         140.1430  142.9672  164.7879 C.ar    1  UNL1        0.1396
     42 N         139.4605  143.8513  165.7892 N.ar    1  UNL1       -0.1336
     43 N         139.9447  143.4645  167.1552 N.ar    1  UNL1       -0.1293
     44 C         140.9265  142.3414  166.9981 C.ar    1  UNL1        0.1644
     45 N         141.0491  142.0340  165.5350 N.ar    1  UNL1       -0.3245
     46 H         141.6233  141.3414  165.1353 H       1  UNL1        0.1686
     47 C         141.6575  141.6474  168.1090 C.ar    1  UNL1        0.0550
     48 C         141.3285  140.2240  168.4489 C.ar    1  UNL1        0.0075
     49 C         142.0595  139.5300  169.5599 C.ar    1  UNL1        0.0340
     50 C         143.1194  140.2595  170.3309 C.ar    1  UNL1        0.1254
     51 N         143.8503  139.5656  171.4418 N.pl3   1  UNL1       -0.3426
     52 N         143.4483  141.6831  169.9909 N.ar    1  UNL1       -0.2295
     53 C         142.7174  142.3769  168.8800 C.ar    1  UNL1        0.1033
     54 H         143.6344  138.6313  171.6649 H       1  UNL1        0.1437
     55 H         144.5459  140.0444  171.9478 H       1  UNL1        0.1437
@<TRIPOS>BOND
     1    25    26    1
     2    26    27    1
     3    26    24    1
     4    24    23    1
     5    23    17    1
     6    17    18    1
     7    18    19    1
     8    19    20    1
     9    20     7    1
    10     7     8   ar
    11     8     9   ar
    12     9    10   ar
    13    10    11   ar
    14    11    12   ar
    15    12    28    1
    16    28    29   ar
    17    29    30   ar
    18    30    31   ar
    19    31    32   ar
    20    32    33   ar
    21    12    13   ar
    22    13     1    1
    23     1     2   ar
    24     2     3   ar
    25     3     4   ar
    26     4    34    1
    27    34    35    1
    28    35    36    1
    29    36    37    1
    30    37    38    1
    31    38    41    1
    32    41    42   ar
    33    42    43   ar
    34    43    44   ar
    35    44    47    1
    36    47    48   ar
    37    48    49   ar
    38    49    50   ar
    39    50    51    1
    40    50    52   ar
    41    52    53   ar
    42    44    45   ar
    43    38    39    1
    44    39    40    1
    45     4     5   ar
    46     5     6   ar
    47    13    14   ar
    48    14    15   ar
    49    15    16   ar
    50    20    21    1
    51    21    22    1
    52    22    17    1
    53    16     7   ar
    54    15    10   ar
    55    33    28   ar
    56     6     1   ar
    57    40    35    1
    58    45    41   ar
    59    53    47   ar
    60    51    54    1
    61    51    55    1
    62    45    46    1
@<TRIPOS>MOLECULE
*****
 55 62 0 0 0
SMALL
GASTEIGER

@<TRIPOS>ATOM
      1 C         139.8910  143.4713  160.9847 C.ar    1  UNL1        0.0177
      2 C         141.1452  143.5892  161.7990 C.ar    1  UNL1        0.0012
      3 C         141.1154  143.2936  163.2693 C.ar    1  UNL1       -0.0029
      4 C         139.8312  142.8803  163.9253 C.ar    1  UNL1       -0.0061
      5 C         138.5771  142.7624  163.1110 C.ar    1  UNL1       -0.0029
      6 C         138.6069  143.0579  161.6407 C.ar    1  UNL1        0.0012
      7 C         139.6270  147.1741  155.6024 C.ar    1  UNL1        0.2216
      8 N         139.8337  146.0615  154.6178 N.ar    1  UNL1       -0.2120
      9 C         140.0104  144.6534  155.1035 C.ar    1  UNL1        0.1048
     10 C         139.9806  144.3579  156.5738 C.ar    1  UNL1        0.0551
     11 C         140.1574  142.9497  157.0595 C.ar    1  UNL1        0.0061
     12 C         140.1275  142.6542  158.5298 C.ar    1  UNL1        0.0179
     13 C         139.9208  143.7668  159.5144 C.ar    1  UNL1        0.0829
     14 N         139.7441  145.1749  159.0287 N.ar    1  UNL1       -0.2264
     15 C         139.7739  145.4705  157.5584 C.ar    1  UNL1        0.1666
     16 N         139.5972  146.8786  157.0727 N.ar    1  UNL1       -0.1945
     17 N         139.0966  151.3986  154.1453 N.3     1  UNL1       -0.2686
     18 C         139.8663  150.4113  153.3190 C.3     1  UNL1        0.0939
     19 C         140.0431  149.0031  153.8047 C.3     1  UNL1        0.1109
     20 N         139.4502  148.5823  155.1167 N.pl3   1  UNL1       -0.2753
     21 C         138.6805  149.5695  155.9430 C.3     1  UNL1        0.1109
     22 C         138.5037  150.9777  155.4574 C.3     1  UNL1        0.0939
     23 C         138.9198  152.8067  153.6597 C.3     1  UNL1        0.0897
     24 C         138.3060  153.8386  154.5588 C.3     1  UNL1        0.0897
     25 C         137.6663  155.3318  152.5312 C.3     1  UNL1        0.0897
     26 N         137.4953  154.9567  153.9734 N.3     1  UNL1       -0.2691
     27 C         136.5135  155.6996  154.8303 C.3     1  UNL1        0.0897
     28 C         140.3043  141.2461  159.0155 C.ar    1  UNL1        0.0015
     29 C         139.1150  140.3402  159.1383 C.ar    1  UNL1        0.0000
     30 C         139.2918  138.9321  159.6240 C.ar    1  UNL1        0.0000
     31 C         140.6578  138.4298  159.9870 C.ar    1  UNL1        0.0000
     32 C         141.8470  139.3356  159.8642 C.ar    1  UNL1        0.0000
     33 C         141.6703  140.7438  159.3785 C.ar    1  UNL1        0.0000
     34 C         139.8014  142.5847  165.3956 C.3     1  UNL1        0.0991
     35 N         140.7018  141.5298  165.9670 N.3     1  UNL1       -0.2689
     36 C         140.6422  140.1269  165.4395 C.3     1  UNL1        0.0728
     37 C         141.5426  139.0719  166.0109 C.3     1  UNL1        0.0249
     38 C         142.5025  139.4199  167.1098 C.3     1  UNL1        0.0613
     39 C         142.5620  140.8229  167.6372 C.3     1  UNL1        0.0249
     40 C         141.6616  141.8778  167.0659 C.3     1  UNL1        0.0728
     41 C         143.4029  138.3650  167.6812 C.ar    1  UNL1        0.1396
     42 N         144.2440  137.4034  166.8951 N.ar    1  UNL1       -0.1336
     43 N         144.9812  136.5306  167.8671 N.ar    1  UNL1       -0.1293
     44 C         144.5956  136.9528  169.2539 C.ar    1  UNL1        0.1644
     45 N         143.6202  138.0865  169.1389 N.ar    1  UNL1       -0.3245
     46 H         143.1969  138.5639  169.8887 H       1  UNL1        0.1686
     47 C         145.0974  136.3475  170.5313 C.ar    1  UNL1        0.0550
     48 C         144.1679  135.5543  171.4012 C.ar    1  UNL1        0.0075
     49 C         144.6697  134.9490  172.6787 C.ar    1  UNL1        0.0340
     50 C         146.1010  135.1369  173.0862 C.ar    1  UNL1        0.1254
     51 N         146.6028  134.5316  174.3635 N.pl3   1  UNL1       -0.3426
     52 N         147.0306  135.9302  172.2161 N.ar    1  UNL1       -0.2295
     53 C         146.5287  136.5354  170.9388 C.ar    1  UNL1        0.1033
     54 H         145.9927  134.0110  174.9345 H       1  UNL1        0.1437
     55 H         147.5422  134.6549  174.6310 H       1  UNL1        0.1437
@<TRIPOS>BOND
     1    25    26    1
     2    26    27    1
     3    26    24    1
     4    24    23    1
     5    23    17    1
     6    17    18    1
     7    18    19    1
     8    19    20    1
     9    20     7    1
    10     7     8   ar
    11     8     9   ar
    12     9    10   ar
    13    10    11   ar
    14    11    12   ar
    15    12    28    1
    16    28    29   ar
    17    29    30   ar
    18    30    31   ar
    19    31    32   ar
    20    32    33   ar
    21    12    13   ar
    22    13     1    1
    23     1     2   ar
    24     2     3   ar
    25     3     4   ar
    26     4    34    1
    27    34    35    1
    28    35    36    1
    29    36    37    1
    30    37    38    1
    31    38    41    1
    32    41    42   ar
    33    42    43   ar
    34    43    44   ar
    35    44    47    1
    36    47    48   ar
    37    48    49   ar
    38    49    50   ar
    39    50    51    1
    40    50    52   ar
    41    52    53   ar
    42    44    45   ar
    43    38    39    1
    44    39    40    1
    45     4     5   ar
    46     5     6   ar
    47    13    14   ar
    48    14    15   ar
    49    15    16   ar
    50    20    21    1
    51    21    22    1
    52    22    17    1
    53    16     7   ar
    54    15    10   ar
    55    33    28   ar
    56     6     1   ar
    57    40    35    1
    58    45    41   ar
    59    53    47   ar
    60    51    54    1
    61    51    55    1
    62    45    46    1
@<TRIPOS>MOLECULE
*****
 55 62 0 0 0
SMALL
GASTEIGER

@<TRIPOS>ATOM
      1 C         141.6143  141.5618  158.2312 C.ar    1  UNL1        0.0177
      2 C         141.4185  142.7497  157.3364 C.ar    1  UNL1        0.0012
      3 C         140.5061  142.6525  156.1497 C.ar    1  UNL1       -0.0029
      4 C         139.7895  141.3674  155.8579 C.ar    1  UNL1       -0.0061
      5 C         139.9853  140.1796  156.7528 C.ar    1  UNL1       -0.0029
      6 C         140.8977  140.2768  157.9394 C.ar    1  UNL1        0.0012
      7 C         143.2035  142.1912  164.5421 C.ar    1  UNL1        0.2216
      8 N         144.6898  142.1196  164.3533 N.ar    1  UNL1       -0.2120
      9 C         145.2638  141.9508  162.9778 C.ar    1  UNL1        0.1048
     10 C         144.3514  141.8536  161.7911 C.ar    1  UNL1        0.0551
     11 C         144.9254  141.6847  160.4156 C.ar    1  UNL1        0.0061
     12 C         144.0130  141.5875  159.2289 C.ar    1  UNL1        0.0179
     13 C         142.5267  141.6591  159.4179 C.ar    1  UNL1        0.0829
     14 N         141.9527  141.8279  160.7934 N.ar    1  UNL1       -0.2264
     15 C         142.8651  141.9252  161.9800 C.ar    1  UNL1        0.1666
     16 N         142.2912  142.0940  163.3555 N.ar    1  UNL1       -0.1945
     17 N         141.4815  142.6978  168.6687 N.3     1  UNL1       -0.2686
     18 C         142.9542  142.4737  168.4929 C.3     1  UNL1        0.0939
     19 C         143.5282  142.3048  167.1174 C.3     1  UNL1        0.1109
     20 N         142.6295  142.3601  165.9177 N.pl3   1  UNL1       -0.2753
     21 C         141.1568  142.5842  166.0935 C.3     1  UNL1        0.1109
     22 C         140.5828  142.7531  167.4689 C.3     1  UNL1        0.0939
     23 C         140.9075  142.8666  170.0442 C.3     1  UNL1        0.0897
     24 C         139.5954  142.2289  170.3927 C.3     1  UNL1        0.0897
     25 C         138.1655  140.0760  170.1265 C.3     1  UNL1        0.0897
     26 N         139.4767  140.7342  170.4388 N.3     1  UNL1       -0.2691
     27 C         140.6692  139.8979  170.7971 C.3     1  UNL1        0.0897
     28 C         144.5870  141.4186  157.8534 C.ar    1  UNL1        0.0015
     29 C         144.3094  140.1679  157.0732 C.ar    1  UNL1        0.0000
     30 C         144.8833  139.9990  155.6977 C.ar    1  UNL1        0.0000
     31 C         145.7348  141.0809  155.1024 C.ar    1  UNL1        0.0000
     32 C         146.0124  142.3316  155.8825 C.ar    1  UNL1        0.0000
     33 C         145.4385  142.5005  157.2581 C.ar    1  UNL1        0.0000
     34 C         138.8772  141.2701  154.6713 C.3     1  UNL1        0.0991
     35 N         137.3952  141.1540  154.8722 N.3     1  UNL1       -0.2689
     36 C         136.7526  139.8008  154.9499 C.3     1  UNL1        0.0728
     37 C         135.2706  139.6847  155.1508 C.3     1  UNL1        0.0249
     38 C         134.4313  140.9217  155.2741 C.3     1  UNL1        0.0613
     39 C         135.0739  142.2749  155.1964 C.3     1  UNL1        0.0249
     40 C         136.5558  142.3910  154.9955 C.3     1  UNL1        0.0728
     41 C         132.9493  140.8057  155.4750 C.ar    1  UNL1        0.1396
     42 N         131.9073  141.7181  154.8991 N.ar    1  UNL1       -0.1336
     43 N         130.5632  141.2331  155.3552 N.ar    1  UNL1       -0.1293
     44 C         130.7745  140.0209  156.2131 C.ar    1  UNL1        0.1644
     45 N         132.2492  139.7567  156.2871 N.ar    1  UNL1       -0.3245
     46 H         132.6817  139.0236  156.7818 H       1  UNL1        0.1686
     47 C         129.6998  139.2144  156.8799 C.ar    1  UNL1        0.0550
     48 C         130.0526  138.2616  157.9834 C.ar    1  UNL1        0.0075
     49 C         128.9779  137.4552  158.6502 C.ar    1  UNL1        0.0340
     50 C         127.5503  137.6014  158.2134 C.ar    1  UNL1        0.1254
     51 N         126.4757  136.7950  158.8802 N.pl3   1  UNL1       -0.3426
     52 N         127.1976  138.5543  157.1098 N.ar    1  UNL1       -0.2295
     53 C         128.2723  139.3607  156.4431 C.ar    1  UNL1        0.1033
     54 H         126.7073  136.1697  159.6045 H       1  UNL1        0.1437
     55 H         125.5387  136.8910  158.5935 H       1  UNL1        0.1437
@<TRIPOS>BOND
     1    25    26    1
     2    26    27    1
     3    26    24    1
     4    24    23    1
     5    23    17    1
     6    17    18    1
     7    18    19    1
     8    19    20    1
     9    20     7    1
    10     7     8   ar
    11     8     9   ar
    12     9    10   ar
    13    10    11   ar
    14    11    12   ar
    15    12    28    1
    16    28    29   ar
    17    29    30   ar
    18    30    31   ar
    19    31    32   ar
    20    32    33   ar
    21    12    13   ar
    22    13     1    1
    23     1     2   ar
    24     2     3   ar
    25     3     4   ar
    26     4    34    1
    27    34    35    1
    28    35    36    1
    29    36    37    1
    30    37    38    1
    31    38    41    1
    32    41    42   ar
    33    42    43   ar
    34    43    44   ar
    35    44    47    1
    36    47    48   ar
    37    48    49   ar
    38    49    50   ar
    39    50    51    1
    40    50    52   ar
    41    52    53   ar
    42    44    45   ar
    43    38    39    1
    44    39    40    1
    45     4     5   ar
    46     5     6   ar
    47    13    14   ar
    48    14    15   ar
    49    15    16   ar
    50    20    21    1
    51    21    22    1
    52    22    17    1
    53    16     7   ar
    54    15    10   ar
    55    33    28   ar
    56     6     1   ar
    57    40    35    1
    58    45    41   ar
    59    53    47   ar
    60    51    54    1
    61    51    55    1
    62    45    46    1
