@<TRIPOS>MOLECULE
*****
 28 30 0 0 0
SMALL
GASTEIGER

@<TRIPOS>ATOM
      1 N         144.2838  139.9084  164.0218 N.3     1  UNL1       -0.2724
      2 C         143.7330  139.6742  165.3973 C.3     1  UNL1        0.0721
      3 C         142.5811  138.7337  165.5938 C.3     1  UNL1        0.0174
      4 C         141.9799  138.0275  164.4149 C.3     1  UNL1        0.0031
      5 C         142.5307  138.2616  163.0395 C.3     1  UNL1        0.0174
      6 C         143.6827  139.2021  162.8430 C.3     1  UNL1        0.0721
      7 C         145.4357  140.8488  163.8253 C.3     1  UNL1        0.0768
      8 C         145.2592  142.3155  164.0853 C.3     1  UNL1        0.0437
      9 C         142.0393  144.6100  161.9365 C.ar    1  UNL1        0.1387
     10 C         142.3602  144.9288  163.3667 C.ar    1  UNL1        0.0366
     11 C         143.4335  144.1639  164.0829 C.ar    1  UNL1       -0.0011
     12 C         144.1859  143.0804  163.3690 C.ar    1  UNL1       -0.0206
     13 C         143.8650  142.7616  161.9389 C.ar    1  UNL1       -0.0011
     14 C         142.7917  143.5265  161.2226 C.ar    1  UNL1        0.0366
     15 C         139.8601  146.0232  161.9991 C.3     1  UNL1        0.2525
     16 O         140.9660  145.3749  161.2203 O.3     1  UNL1       -0.4714
     17 C         140.8280  137.0870  164.6114 C.3     1  UNL1        0.0049
     18 C         139.4463  137.6287  164.8292 C.3     1  UNL1        0.0294
     19 C         138.8104  138.5021  163.7886 C.ar    1  UNL1        0.0118
     20 C         138.6376  137.9951  162.3876 C.ar    1  UNL1       -0.0013
     21 C         138.0017  138.8684  161.3469 C.ar    1  UNL1       -0.0001
     22 C         137.5388  140.2489  161.7073 C.ar    1  UNL1        0.0031
     23 C         137.7116  140.7561  163.1084 C.ar    1  UNL1        0.0366
     24 C         138.3475  139.8827  164.1491 C.ar    1  UNL1        0.1346
     25 O         138.5203  140.3897  165.5501 O.3     1  UNL1       -0.4727
     26 C         139.8072  141.0438  165.9575 C.3     1  UNL1        0.2434
     27 C         140.5202  141.9555  165.0031 C.3     1  UNL1        0.2403
     28 F         141.2767  141.3822  163.8418 F       1  UNL1       -0.2302
@<TRIPOS>BOND
     1    15    16    1
     2    16     9    1
     3     9    10   ar
     4    10    11   ar
     5    11    12   ar
     6    12     8    1
     7     8     7    1
     8     7     1    1
     9     1     2    1
    10     2     3    1
    11     3     4    1
    12     4    17    1
    13    17    18    1
    14    18    19    1
    15    19    20   ar
    16    20    21   ar
    17    21    22   ar
    18    22    23   ar
    19    23    24   ar
    20    24    25    1
    21    25    26    1
    22    26    27    1
    23    27    28    1
    24     4     5    1
    25     5     6    1
    26    12    13   ar
    27    13    14   ar
    28    14     9   ar
    29     6     1    1
    30    24    19   ar
@<TRIPOS>MOLECULE
*****
 28 30 0 0 0
SMALL
GASTEIGER

@<TRIPOS>ATOM
      1 N         139.0069  138.2439  162.6927 N.3     1  UNL1       -0.2724
      2 C         140.3925  138.2583  162.1181 C.3     1  UNL1        0.0721
      3 C         141.5826  138.1872  163.0283 C.3     1  UNL1        0.0174
      4 C         141.3872  138.1018  164.5131 C.3     1  UNL1        0.0031
      5 C         140.0017  138.0874  165.0876 C.3     1  UNL1        0.0174
      6 C         138.8115  138.1584  164.1774 C.3     1  UNL1        0.0721
      7 C         137.8167  138.3149  161.7825 C.3     1  UNL1        0.0768
      8 C         137.6294  139.5014  160.8841 C.3     1  UNL1        0.0437
      9 C         138.5957  143.6331  162.3826 C.ar    1  UNL1        0.1387
     10 C         137.6578  142.7549  163.1566 C.ar    1  UNL1        0.0366
     11 C         137.3357  141.3776  162.6571 C.ar    1  UNL1       -0.0011
     12 C         137.9515  140.8786  161.3836 C.ar    1  UNL1       -0.0206
     13 C         138.8893  141.7569  160.6096 C.ar    1  UNL1       -0.0011
     14 C         139.2114  143.1341  161.1091 C.ar    1  UNL1        0.0366
     15 C         139.6911  145.9603  162.0164 C.3     1  UNL1        0.2525
     16 O         138.9178  145.0103  162.8820 O.3     1  UNL1       -0.4714
     17 C         142.5773  138.0307  165.4234 C.3     1  UNL1        0.0049
     18 C         143.0538  139.2637  166.1326 C.3     1  UNL1        0.0294
     19 C         143.7511  140.3479  165.3656 C.ar    1  UNL1        0.0118
     20 C         144.7459  139.9924  164.3008 C.ar    1  UNL1       -0.0013
     21 C         145.4433  141.0766  163.5338 C.ar    1  UNL1       -0.0001
     22 C         145.1457  142.5163  163.8317 C.ar    1  UNL1        0.0031
     23 C         144.1508  142.8718  164.8965 C.ar    1  UNL1        0.0366
     24 C         143.4535  141.7876  165.6635 C.ar    1  UNL1        0.1346
     25 O         142.4586  142.1431  166.7283 O.3     1  UNL1       -0.4727
     26 C         141.0761  142.5820  166.3464 C.3     1  UNL1        0.2434
     27 C         140.1977  141.6742  165.5373 C.3     1  UNL1        0.2403
     28 F         140.5675  141.3375  164.1232 F       1  UNL1       -0.2302
@<TRIPOS>BOND
     1    15    16    1
     2    16     9    1
     3     9    10   ar
     4    10    11   ar
     5    11    12   ar
     6    12     8    1
     7     8     7    1
     8     7     1    1
     9     1     2    1
    10     2     3    1
    11     3     4    1
    12     4    17    1
    13    17    18    1
    14    18    19    1
    15    19    20   ar
    16    20    21   ar
    17    21    22   ar
    18    22    23   ar
    19    23    24   ar
    20    24    25    1
    21    25    26    1
    22    26    27    1
    23    27    28    1
    24     4     5    1
    25     5     6    1
    26    12    13   ar
    27    13    14   ar
    28    14     9   ar
    29     6     1    1
    30    24    19   ar
@<TRIPOS>MOLECULE
*****
 28 30 0 0 0
SMALL
GASTEIGER

@<TRIPOS>ATOM
      1 N         141.7167  137.9018  162.1921 N.3     1  UNL1       -0.2724
      2 C         140.2522  137.9742  161.8756 C.3     1  UNL1        0.0721
      3 C         139.2440  137.9734  162.9863 C.3     1  UNL1        0.0174
      4 C         139.7003  137.9003  164.4134 C.3     1  UNL1        0.0031
      5 C         141.1647  137.8279  164.7297 C.3     1  UNL1        0.0174
      6 C         142.1730  137.8287  163.6191 C.3     1  UNL1        0.0721
      7 C         142.7249  137.9025  161.0814 C.3     1  UNL1        0.0768
      8 C         144.0623  138.5511  161.2830 C.3     1  UNL1        0.0437
      9 C         144.3217  142.9727  162.0781 C.ar    1  UNL1        0.1387
     10 C         143.7840  142.4764  160.7687 C.ar    1  UNL1        0.0366
     11 C         143.6975  141.0026  160.5037 C.ar    1  UNL1       -0.0011
     12 C         144.1488  140.0250  161.5480 C.ar    1  UNL1       -0.0206
     13 C         144.6865  140.5213  162.8574 C.ar    1  UNL1       -0.0011
     14 C         144.7729  141.9952  163.1224 C.ar    1  UNL1        0.0366
     15 C         143.7573  145.0288  163.5627 C.3     1  UNL1        0.2525
     16 O         144.4081  144.4466  162.3431 O.3     1  UNL1       -0.4714
     17 C         138.6921  137.8996  165.5240 C.3     1  UNL1        0.0049
     18 C         138.1362  139.1965  166.0331 C.3     1  UNL1        0.0294
     19 C         139.0384  140.1845  166.7112 C.ar    1  UNL1        0.0118
     20 C         139.5189  139.9254  168.1083 C.ar    1  UNL1       -0.0013
     21 C         140.4212  140.9134  168.7865 C.ar    1  UNL1       -0.0001
     22 C         140.8429  142.1605  168.0675 C.ar    1  UNL1        0.0031
     23 C         140.3624  142.4196  166.6703 C.ar    1  UNL1        0.0366
     24 C         139.4601  141.4316  165.9922 C.ar    1  UNL1        0.1346
     25 O         138.9796  141.6906  164.5951 O.3     1  UNL1       -0.4727
     26 C         137.8132  142.6041  164.3604 C.3     1  UNL1        0.2434
     27 C         138.0300  144.0844  164.2514 C.3     1  UNL1        0.2403
     28 F         138.4366  144.8739  165.4603 F       1  UNL1       -0.2302
@<TRIPOS>BOND
     1    15    16    1
     2    16     9    1
     3     9    10   ar
     4    10    11   ar
     5    11    12   ar
     6    12     8    1
     7     8     7    1
     8     7     1    1
     9     1     2    1
    10     2     3    1
    11     3     4    1
    12     4    17    1
    13    17    18    1
    14    18    19    1
    15    19    20   ar
    16    20    21   ar
    17    21    22   ar
    18    22    23   ar
    19    23    24   ar
    20    24    25    1
    21    25    26    1
    22    26    27    1
    23    27    28    1
    24     4     5    1
    25     5     6    1
    26    12    13   ar
    27    13    14   ar
    28    14     9   ar
    29     6     1    1
    30    24    19   ar
@<TRIPOS>MOLECULE
*****
 28 30 0 0 0
SMALL
GASTEIGER

@<TRIPOS>ATOM
      1 N         141.3061  138.0708  164.6186 N.3     1  UNL1       -0.2724
      2 C         141.8696  138.8827  165.7470 C.3     1  UNL1        0.0721
      3 C         143.1942  139.5687  165.5889 C.3     1  UNL1        0.0174
      4 C         143.9551  139.4428  164.3023 C.3     1  UNL1        0.0031
      5 C         143.3916  138.6309  163.1740 C.3     1  UNL1        0.0174
      6 C         142.0670  137.9449  163.3321 C.3     1  UNL1        0.0721
      7 C         139.9815  137.3848  164.7767 C.3     1  UNL1        0.0768
      8 C         138.8791  137.6470  163.7940 C.3     1  UNL1        0.0437
      9 C         137.7347  141.8774  162.7721 C.ar    1  UNL1        0.1387
     10 C         137.8113  140.8394  161.6920 C.ar    1  UNL1        0.0366
     11 C         138.1928  139.4293  162.0326 C.ar    1  UNL1       -0.0011
     12 C         138.4976  139.0571  163.4534 C.ar    1  UNL1       -0.0206
     13 C         138.4210  140.0951  164.5335 C.ar    1  UNL1       -0.0011
     14 C         138.0396  141.5052  164.1928 C.ar    1  UNL1        0.0366
     15 C         138.0836  144.4354  163.0629 C.3     1  UNL1        0.2525
     16 O         137.3533  143.2875  162.4315 O.3     1  UNL1       -0.4714
     17 C         145.2797  140.1288  164.1442 C.3     1  UNL1        0.0049
     18 C         145.4259  141.2626  163.1730 C.3     1  UNL1        0.0294
     19 C         144.6957  142.5514  163.4093 C.ar    1  UNL1        0.0118
     20 C         144.7787  143.2262  164.7464 C.ar    1  UNL1       -0.0013
     21 C         144.0485  144.5150  164.9827 C.ar    1  UNL1       -0.0001
     22 C         143.2353  145.1290  163.8820 C.ar    1  UNL1        0.0031
     23 C         143.1523  144.4542  162.5449 C.ar    1  UNL1        0.0366
     24 C         143.8825  143.1654  162.3085 C.ar    1  UNL1        0.1346
     25 O         143.7994  142.4907  160.9715 O.3     1  UNL1       -0.4727
     26 C         142.7901  141.4054  160.7405 C.3     1  UNL1        0.2434
     27 C         141.4457  141.4783  161.4019 C.3     1  UNL1        0.2403
     28 F         141.3072  141.1461  162.8581 F       1  UNL1       -0.2302
@<TRIPOS>BOND
     1    15    16    1
     2    16     9    1
     3     9    10   ar
     4    10    11   ar
     5    11    12   ar
     6    12     8    1
     7     8     7    1
     8     7     1    1
     9     1     2    1
    10     2     3    1
    11     3     4    1
    12     4    17    1
    13    17    18    1
    14    18    19    1
    15    19    20   ar
    16    20    21   ar
    17    21    22   ar
    18    22    23   ar
    19    23    24   ar
    20    24    25    1
    21    25    26    1
    22    26    27    1
    23    27    28    1
    24     4     5    1
    25     5     6    1
    26    12    13   ar
    27    13    14   ar
    28    14     9   ar
    29     6     1    1
    30    24    19   ar
@<TRIPOS>MOLECULE
*****
 28 30 0 0 0
SMALL
GASTEIGER

@<TRIPOS>ATOM
      1 N         144.1498  140.0741  163.9483 N.3     1  UNL1       -0.2724
      2 C         143.7883  139.4356  165.2566 C.3     1  UNL1        0.0721
      3 C         142.7042  138.4004  165.3118 C.3     1  UNL1        0.0174
      4 C         141.9816  138.0037  164.0586 C.3     1  UNL1        0.0031
      5 C         142.3430  138.6422  162.7503 C.3     1  UNL1        0.0174
      6 C         143.4271  139.6774  162.6951 C.3     1  UNL1        0.0721
      7 C         145.2339  141.1094  163.8931 C.3     1  UNL1        0.0768
      8 C         145.0144  142.4588  164.5102 C.3     1  UNL1        0.0437
      9 C         140.9723  144.4198  164.2538 C.ar    1  UNL1        0.1387
     10 C         141.2068  143.3104  165.2357 C.ar    1  UNL1        0.0366
     11 C         142.5541  142.6567  165.3212 C.ar    1  UNL1       -0.0011
     12 C         143.6670  143.1124  164.4247 C.ar    1  UNL1       -0.0206
     13 C         143.4326  144.2218  163.4428 C.ar    1  UNL1       -0.0011
     14 C         142.0852  144.8755  163.3573 C.ar    1  UNL1        0.0366
     15 C         138.5737  144.7615  165.1917 C.3     1  UNL1        0.2525
     16 O         139.6249  145.0735  164.1683 O.3     1  UNL1       -0.4714
     17 C         140.8975  136.9685  164.1137 C.3     1  UNL1        0.0049
     18 C         139.5382  137.3328  164.6332 C.3     1  UNL1        0.0294
     19 C         138.9469  138.6733  164.3114 C.ar    1  UNL1        0.0118
     20 C         138.5172  138.9863  162.9088 C.ar    1  UNL1       -0.0013
     21 C         137.9259  140.3267  162.5870 C.ar    1  UNL1       -0.0001
     22 C         137.7642  141.3541  163.6677 C.ar    1  UNL1        0.0031
     23 C         138.1939  141.0412  165.0704 C.ar    1  UNL1        0.0366
     24 C         138.7852  139.7008  165.3923 C.ar    1  UNL1        0.1346
     25 O         139.2149  139.3878  166.7949 O.3     1  UNL1       -0.4727
     26 C         139.7388  140.4796  167.6800 C.3     1  UNL1        0.2434
     27 C         139.7520  140.2967  169.1688 C.3     1  UNL1        0.2403
     28 F         138.6343  140.8498  170.0024 F       1  UNL1       -0.2302
@<TRIPOS>BOND
     1    15    16    1
     2    16     9    1
     3     9    10   ar
     4    10    11   ar
     5    11    12   ar
     6    12     8    1
     7     8     7    1
     8     7     1    1
     9     1     2    1
    10     2     3    1
    11     3     4    1
    12     4    17    1
    13    17    18    1
    14    18    19    1
    15    19    20   ar
    16    20    21   ar
    17    21    22   ar
    18    22    23   ar
    19    23    24   ar
    20    24    25    1
    21    25    26    1
    22    26    27    1
    23    27    28    1
    24     4     5    1
    25     5     6    1
    26    12    13   ar
    27    13    14   ar
    28    14     9   ar
    29     6     1    1
    30    24    19   ar
@<TRIPOS>MOLECULE
*****
 28 30 0 0 0
SMALL
GASTEIGER

@<TRIPOS>ATOM
      1 N         141.6084  137.8488  162.2028 N.3     1  UNL1       -0.2724
      2 C         140.1478  137.9781  161.8864 C.3     1  UNL1        0.0721
      3 C         139.1319  137.8958  162.9869 C.3     1  UNL1        0.0174
      4 C         139.5765  137.6844  164.4038 C.3     1  UNL1        0.0031
      5 C         141.0371  137.5551  164.7202 C.3     1  UNL1        0.0174
      6 C         142.0530  137.6373  163.6197 C.3     1  UNL1        0.0721
      7 C         142.6244  137.9310  161.1023 C.3     1  UNL1        0.0768
      8 C         143.9689  138.5411  161.3668 C.3     1  UNL1        0.0437
      9 C         144.3249  142.9644  162.1138 C.ar    1  UNL1        0.1387
     10 C         143.9274  142.4625  160.7573 C.ar    1  UNL1        0.0366
     11 C         143.8087  140.9880  160.5084 C.ar    1  UNL1       -0.0011
     12 C         144.0875  140.0156  161.6158 C.ar    1  UNL1       -0.0206
     13 C         144.4850  140.5175  162.9723 C.ar    1  UNL1       -0.0011
     14 C         144.6037  141.9919  163.2213 C.ar    1  UNL1        0.0366
     15 C         143.7353  145.0619  163.5290 C.3     1  UNL1        0.2525
     16 O         144.4436  144.4388  162.3628 O.3     1  UNL1       -0.4714
     17 C         138.5606  137.6021  165.5043 C.3     1  UNL1        0.0049
     18 C         138.2702  138.8076  166.3486 C.3     1  UNL1        0.0294
     19 C         138.8503  140.1402  165.9778 C.ar    1  UNL1        0.0118
     20 C         138.1992  140.9714  164.9123 C.ar    1  UNL1       -0.0013
     21 C         138.7793  142.3040  164.5416 C.ar    1  UNL1       -0.0001
     22 C         140.0104  142.8056  165.2363 C.ar    1  UNL1        0.0031
     23 C         140.6616  141.9745  166.3018 C.ar    1  UNL1        0.0366
     24 C         140.0815  140.6418  166.6726 C.ar    1  UNL1        0.1346
     25 O         140.7326  139.8107  167.7381 O.3     1  UNL1       -0.4727
     26 C         140.8533  140.3429  169.1352 C.3     1  UNL1        0.2434
     27 C         139.6916  140.2426  170.0790 C.3     1  UNL1        0.2403
     28 F         138.3026  140.0626  169.5422 F       1  UNL1       -0.2302
@<TRIPOS>BOND
     1    15    16    1
     2    16     9    1
     3     9    10   ar
     4    10    11   ar
     5    11    12   ar
     6    12     8    1
     7     8     7    1
     8     7     1    1
     9     1     2    1
    10     2     3    1
    11     3     4    1
    12     4    17    1
    13    17    18    1
    14    18    19    1
    15    19    20   ar
    16    20    21   ar
    17    21    22   ar
    18    22    23   ar
    19    23    24   ar
    20    24    25    1
    21    25    26    1
    22    26    27    1
    23    27    28    1
    24     4     5    1
    25     5     6    1
    26    12    13   ar
    27    13    14   ar
    28    14     9   ar
    29     6     1    1
    30    24    19   ar
@<TRIPOS>MOLECULE
*****
 28 30 0 0 0
SMALL
GASTEIGER

@<TRIPOS>ATOM
      1 N         141.6026  137.8495  162.1686 N.3     1  UNL1       -0.2724
      2 C         142.0369  137.6643  163.5924 C.3     1  UNL1        0.0721
      3 C         141.0107  137.5354  164.6788 C.3     1  UNL1        0.0174
      4 C         139.5502  137.5918  164.3414 C.3     1  UNL1        0.0031
      5 C         139.1159  137.7770  162.9177 C.3     1  UNL1        0.0174
      6 C         140.1422  137.9059  161.8313 C.3     1  UNL1        0.0721
      7 C         142.6288  137.9783  161.0822 C.3     1  UNL1        0.0768
      8 C         143.9789  138.5547  161.3904 C.3     1  UNL1        0.0437
      9 C         144.4160  142.9628  162.1830 C.ar    1  UNL1        0.1387
     10 C         145.0034  141.9670  163.1387 C.ar    1  UNL1        0.0366
     11 C         144.8577  140.4977  162.8745 C.ar    1  UNL1       -0.0011
     12 C         144.1246  140.0241  161.6546 C.ar    1  UNL1       -0.0206
     13 C         143.5372  141.0198  160.6989 C.ar    1  UNL1       -0.0011
     14 C         143.6829  142.4891  160.9631 C.ar    1  UNL1        0.0366
     15 C         143.6297  145.1186  163.4012 C.3     1  UNL1        0.2525
     16 O         144.5617  144.4321  162.4472 O.3     1  UNL1       -0.4714
     17 C         138.5239  137.4629  165.4278 C.3     1  UNL1        0.0049
     18 C         138.1380  138.6628  166.2411 C.3     1  UNL1        0.0294
     19 C         138.6022  140.0286  165.8296 C.ar    1  UNL1        0.0118
     20 C         137.8840  140.7682  164.7401 C.ar    1  UNL1       -0.0013
     21 C         138.3481  142.1339  164.3286 C.ar    1  UNL1       -0.0001
     22 C         139.5305  142.7601  165.0067 C.ar    1  UNL1        0.0031
     23 C         140.2488  142.0205  166.0964 C.ar    1  UNL1        0.0366
     24 C         139.7846  140.6547  166.5078 C.ar    1  UNL1        0.1346
     25 O         140.5028  139.9152  167.5974 O.3     1  UNL1       -0.4727
     26 C         141.9731  140.1274  167.8047 C.3     1  UNL1        0.2434
     27 C         142.9497  139.0663  167.3918 C.3     1  UNL1        0.2403
     28 F         143.6808  139.1864  166.0876 F       1  UNL1       -0.2302
@<TRIPOS>BOND
     1    15    16    1
     2    16     9    1
     3     9    10   ar
     4    10    11   ar
     5    11    12   ar
     6    12     8    1
     7     8     7    1
     8     7     1    1
     9     1     2    1
    10     2     3    1
    11     3     4    1
    12     4    17    1
    13    17    18    1
    14    18    19    1
    15    19    20   ar
    16    20    21   ar
    17    21    22   ar
    18    22    23   ar
    19    23    24   ar
    20    24    25    1
    21    25    26    1
    22    26    27    1
    23    27    28    1
    24     4     5    1
    25     5     6    1
    26    12    13   ar
    27    13    14   ar
    28    14     9   ar
    29     6     1    1
    30    24    19   ar
@<TRIPOS>MOLECULE
*****
 28 30 0 0 0
SMALL
GASTEIGER

@<TRIPOS>ATOM
      1 N         138.3092  142.0747  164.5852 N.3     1  UNL1       -0.2724
      2 C         139.1753  141.6011  165.7147 C.3     1  UNL1        0.0721
      3 C         139.5822  140.1596  165.7943 C.3     1  UNL1        0.0174
      4 C         139.1229  139.1915  164.7445 C.3     1  UNL1        0.0031
      5 C         138.2568  139.6651  163.6151 C.3     1  UNL1        0.0174
      6 C         137.8500  141.1067  163.5355 C.3     1  UNL1        0.0721
      7 C         137.9023  143.5162  164.5056 C.3     1  UNL1        0.0768
      8 C         138.9474  144.5921  164.5138 C.3     1  UNL1        0.0437
      9 C         142.7666  144.0364  162.1996 C.ar    1  UNL1        0.1387
     10 C         141.4897  144.3464  161.4762 C.ar    1  UNL1        0.0366
     11 C         140.2166  144.5316  162.2476 C.ar    1  UNL1       -0.0011
     12 C         140.2205  144.4069  163.7424 C.ar    1  UNL1       -0.0206
     13 C         141.4974  144.0969  164.4658 C.ar    1  UNL1       -0.0011
     14 C         142.7705  143.9117  163.6944 C.ar    1  UNL1        0.0366
     15 C         144.7101  142.5097  161.3984 C.3     1  UNL1        0.2525
     16 O         144.0396  143.8512  161.4283 O.3     1  UNL1       -0.4714
     17 C         139.5298  137.7500  164.8241 C.3     1  UNL1        0.0049
     18 C         140.7082  137.2587  164.0365 C.3     1  UNL1        0.0294
     19 C         142.0306  137.9574  164.1509 C.ar    1  UNL1        0.0118
     20 C         142.6540  138.1671  165.4990 C.ar    1  UNL1       -0.0013
     21 C         143.9764  138.8658  165.6133 C.ar    1  UNL1       -0.0001
     22 C         144.6755  139.3547  164.3796 C.ar    1  UNL1        0.0031
     23 C         144.0521  139.1450  163.0314 C.ar    1  UNL1        0.0366
     24 C         142.7297  138.4463  162.9170 C.ar    1  UNL1        0.1346
     25 O         142.1064  138.2366  161.5689 O.3     1  UNL1       -0.4727
     26 C         141.0514  139.1817  161.0753 C.3     1  UNL1        0.2434
     27 C         141.1828  140.6536  161.3333 C.3     1  UNL1        0.2403
     28 F         141.0551  141.1844  162.7304 F       1  UNL1       -0.2302
@<TRIPOS>BOND
     1    15    16    1
     2    16     9    1
     3     9    10   ar
     4    10    11   ar
     5    11    12   ar
     6    12     8    1
     7     8     7    1
     8     7     1    1
     9     1     2    1
    10     2     3    1
    11     3     4    1
    12     4    17    1
    13    17    18    1
    14    18    19    1
    15    19    20   ar
    16    20    21   ar
    17    21    22   ar
    18    22    23   ar
    19    23    24   ar
    20    24    25    1
    21    25    26    1
    22    26    27    1
    23    27    28    1
    24     4     5    1
    25     5     6    1
    26    12    13   ar
    27    13    14   ar
    28    14     9   ar
    29     6     1    1
    30    24    19   ar
@<TRIPOS>MOLECULE
*****
 28 30 0 0 0
SMALL
GASTEIGER

@<TRIPOS>ATOM
      1 N         137.8868  140.2238  162.1310 N.3     1  UNL1       -0.2724
      2 C         138.0184  141.5029  161.3585 C.3     1  UNL1        0.0721
      3 C         138.0170  142.8181  162.0797 C.3     1  UNL1        0.0174
      4 C         137.8841  142.8542  163.5734 C.3     1  UNL1        0.0031
      5 C         137.7525  141.5752  164.3458 C.3     1  UNL1        0.0174
      6 C         137.7538  140.2599  163.6246 C.3     1  UNL1        0.0721
      7 C         137.8881  138.9085  161.4098 C.3     1  UNL1        0.0768
      8 C         139.1778  138.1747  161.1905 C.3     1  UNL1        0.0437
      9 C         142.5651  138.6551  164.1138 C.ar    1  UNL1        0.1387
     10 C         141.4972  137.6321  164.3647 C.ar    1  UNL1        0.0366
     11 C         140.3681  137.4720  163.3903 C.ar    1  UNL1       -0.0011
     12 C         140.3069  138.3349  162.1649 C.ar    1  UNL1       -0.0206
     13 C         141.3748  139.3579  161.9139 C.ar    1  UNL1       -0.0011
     14 C         142.5039  139.5180  162.8884 C.ar    1  UNL1        0.0366
     15 C         143.5273  138.3666  166.5097 C.3     1  UNL1        0.2525
     16 O         143.6942  138.8152  165.0882 O.3     1  UNL1       -0.4714
     17 C         137.8827  144.1695  164.2946 C.3     1  UNL1        0.0049
     18 C         138.9706  144.4870  165.2774 C.3     1  UNL1        0.0294
     19 C         140.3758  144.0334  165.0133 C.ar    1  UNL1        0.0118
     20 C         141.2137  144.7436  163.9919 C.ar    1  UNL1       -0.0013
     21 C         142.6188  144.2900  163.7278 C.ar    1  UNL1       -0.0001
     22 C         143.1861  143.1261  164.4851 C.ar    1  UNL1        0.0031
     23 C         142.3481  142.4158  165.5066 C.ar    1  UNL1        0.0366
     24 C         140.9430  142.8694  165.7707 C.ar    1  UNL1        0.1346
     25 O         140.1051  142.1592  166.7922 O.3     1  UNL1       -0.4727
     26 C         140.2730  140.6840  167.0054 C.3     1  UNL1        0.2434
     27 C         140.1563  140.1076  168.3854 C.3     1  UNL1        0.2403
     28 F         138.9248  140.3624  169.2030 F       1  UNL1       -0.2302
@<TRIPOS>BOND
     1    15    16    1
     2    16     9    1
     3     9    10   ar
     4    10    11   ar
     5    11    12   ar
     6    12     8    1
     7     8     7    1
     8     7     1    1
     9     1     2    1
    10     2     3    1
    11     3     4    1
    12     4    17    1
    13    17    18    1
    14    18    19    1
    15    19    20   ar
    16    20    21   ar
    17    21    22   ar
    18    22    23   ar
    19    23    24   ar
    20    24    25    1
    21    25    26    1
    22    26    27    1
    23    27    28    1
    24     4     5    1
    25     5     6    1
    26    12    13   ar
    27    13    14   ar
    28    14     9   ar
    29     6     1    1
    30    24    19   ar
