@<TRIPOS>MOLECULE
*****
 37 41 0 0 0
SMALL
GASTEIGER

@<TRIPOS>ATOM
      1 S         139.0693  139.6341  163.7636 S.O2    1  UNL1        0.0736
      2 O         139.5812  140.8844  164.4151 O.2     1  UNL1       -0.1499
      3 O         138.5574  138.3837  163.1121 O.2     1  UNL1       -0.1499
      4 C         138.8911  140.3790  162.4739 C.ar    1  UNL1        0.1251
      5 C         138.3665  141.7842  162.4858 C.ar    1  UNL1        0.0199
      6 C         138.1883  142.5292  161.1961 C.ar    1  UNL1       -0.0029
      7 C         138.5346  141.8690  159.8946 C.ar    1  UNL1       -0.0221
      8 C         139.0592  140.4637  159.8827 C.ar    1  UNL1       -0.0029
      9 C         139.2374  139.7188  161.1723 C.ar    1  UNL1        0.0199
     10 C         138.3564  142.6139  158.6049 C.3     1  UNL1        0.0278
     11 C         139.5055  143.3757  158.0138 C.3     1  UNL1        0.0220
     12 C         140.1061  144.5280  158.7631 C.3     1  UNL1        0.0725
     13 N         141.1980  144.2853  159.7625 N.3     1  UNL1       -0.2703
     14 C         142.3590  143.4050  159.4058 C.3     1  UNL1        0.0897
     15 C         143.4510  143.1623  160.4053 C.3     1  UNL1        0.0896
     16 N         143.3819  143.7999  161.7612 N.3     1  UNL1       -0.2715
     17 C         144.3023  143.7447  162.9444 C.3     1  UNL1        0.0722
     18 C         143.7102  144.5908  164.0322 C.3     1  UNL1        0.0188
     19 C         142.4238  145.1690  163.5214 C.3     1  UNL1        0.0188
     20 C         142.2209  144.6802  162.1179 C.3     1  UNL1        0.0736
     21 C         141.1290  144.9229  161.1185 C.3     1  UNL1        0.0882
     22 N         139.2475  138.8890  165.0533 N.pl3   1  UNL1       -0.2153
     23 H         138.5116  138.3419  165.4114 H       1  UNL1        0.1737
     24 C         141.8211  138.5433  165.1357 C.ar    1  UNL1       -0.0075
     25 C         143.1206  138.6321  165.8797 C.ar    1  UNL1       -0.0015
     26 C         143.1459  139.1552  167.2853 C.ar    1  UNL1        0.0189
     27 C         141.8716  139.5897  167.9469 C.ar    1  UNL1        0.0825
     28 N         141.8969  140.1129  169.3524 N.ar    1  UNL1       -0.2438
     29 C         140.6228  140.5473  170.0140 C.ar    1  UNL1        0.0988
     30 C         139.3233  140.4586  169.2700 C.ar    1  UNL1        0.0207
     31 C         139.2980  139.9354  167.8644 C.ar    1  UNL1        0.0044
     32 C         140.5722  139.5010  167.2029 C.ar    1  UNL1        0.0320
     33 C         140.5469  138.9778  165.7973 C.ar    1  UNL1        0.0622
     34 C         141.7959  138.0201  163.7301 C.3     1  UNL1        0.0276
     35 C         142.6389  140.2214  162.6376 C.3     1  UNL1        0.0003
     36 C         142.5693  138.7231  162.6542 C.3     1  UNL1        0.0044
     37 C         143.2730  137.9278  161.5948 C.3     1  UNL1        0.0003
@<TRIPOS>BOND
     1    35    36    1
     2    36    37    1
     3    36    34    1
     4    34    24    1
     5    24    25   ar
     6    25    26   ar
     7    26    27   ar
     8    27    28   ar
     9    28    29   ar
    10    29    30   ar
    11    30    31   ar
    12    31    32   ar
    13    32    33   ar
    14    33    22    1
    15    22     1    1
    16     1     2    2
    17     1     3    2
    18     1     4    1
    19     4     5   ar
    20     5     6   ar
    21     6     7   ar
    22     7    10    1
    23    10    11    1
    24    11    12    1
    25    12    13    1
    26    13    14    1
    27    14    15    1
    28    15    16    1
    29    16    17    1
    30    17    18    1
    31    18    19    1
    32    20    19    1
    33    20    21    1
    34     7     8   ar
    35     8     9   ar
    36    33    24   ar
    37     9     4   ar
    38    32    27   ar
    39    21    13    1
    40    20    16    1
    41    22    23    1
@<TRIPOS>MOLECULE
*****
 37 41 0 0 0
SMALL
GASTEIGER

@<TRIPOS>ATOM
      1 S         140.2203  142.3868  164.2639 S.O2    1  UNL1        0.0736
      2 O         141.4515  143.0040  164.8580 O.2     1  UNL1       -0.1499
      3 O         138.9890  141.7696  163.6697 O.2     1  UNL1       -0.1499
      4 C         140.6428  142.8543  162.9027 C.ar    1  UNL1        0.1251
      5 C         140.2453  142.0740  161.6849 C.ar    1  UNL1        0.0199
      6 C         140.6678  142.5415  160.3236 C.ar    1  UNL1       -0.0029
      7 C         141.4878  143.7893  160.1802 C.ar    1  UNL1       -0.0221
      8 C         141.8853  144.5696  161.3981 C.ar    1  UNL1       -0.0029
      9 C         141.4628  144.1021  162.7593 C.ar    1  UNL1        0.0199
     10 C         141.9103  144.2569  158.8190 C.3     1  UNL1        0.0278
     11 C         142.8117  143.4017  157.9786 C.3     1  UNL1        0.0220
     12 C         144.1402  142.9586  158.5157 C.3     1  UNL1        0.0725
     13 N         144.2015  141.9979  159.6660 N.3     1  UNL1       -0.2703
     14 C         143.6925  140.5966  159.5008 C.3     1  UNL1        0.0897
     15 C         143.7538  139.6359  160.6513 C.3     1  UNL1        0.0896
     16 N         144.3240  140.0766  161.9668 N.3     1  UNL1       -0.2715
     17 C         144.5135  139.3580  163.2698 C.3     1  UNL1        0.0722
     18 C         145.1396  140.3152  164.2402 C.3     1  UNL1        0.0188
     19 C         145.3371  141.6253  163.5370 C.3     1  UNL1        0.0188
     20 C         144.8330  141.4779  162.1319 C.3     1  UNL1        0.0736
     21 C         144.7718  142.4385  160.9816 C.3     1  UNL1        0.0882
     22 N         139.7977  141.9192  165.6251 N.pl3   1  UNL1       -0.2153
     23 H         138.8906  142.1156  165.9534 H       1  UNL1        0.1737
     24 C         141.3621  139.8758  165.9818 C.ar    1  UNL1       -0.0075
     25 C         142.3217  139.1091  166.8427 C.ar    1  UNL1       -0.0015
     26 C         142.6765  139.6190  168.2080 C.ar    1  UNL1        0.0189
     27 C         142.0717  140.8957  168.7124 C.ar    1  UNL1        0.0825
     28 N         142.4265  141.4056  170.0777 N.ar    1  UNL1       -0.2438
     29 C         141.8217  142.6822  170.5820 C.ar    1  UNL1        0.0988
     30 C         140.8621  143.4490  169.7210 C.ar    1  UNL1        0.0207
     31 C         140.5073  142.9391  168.3557 C.ar    1  UNL1        0.0044
     32 C         141.1121  141.6625  167.8514 C.ar    1  UNL1        0.0320
     33 C         140.7573  141.1525  166.4861 C.ar    1  UNL1        0.0622
     34 C         141.0073  139.3659  164.6164 C.3     1  UNL1        0.0276
     35 C         139.7681  137.5771  163.1971 C.3     1  UNL1        0.0003
     36 C         139.8748  138.3967  164.4487 C.3     1  UNL1        0.0044
     37 C         138.8488  138.2473  165.5328 C.3     1  UNL1        0.0003
@<TRIPOS>BOND
     1    35    36    1
     2    36    37    1
     3    36    34    1
     4    34    24    1
     5    24    25   ar
     6    25    26   ar
     7    26    27   ar
     8    27    28   ar
     9    28    29   ar
    10    29    30   ar
    11    30    31   ar
    12    31    32   ar
    13    32    33   ar
    14    33    22    1
    15    22     1    1
    16     1     2    2
    17     1     3    2
    18     1     4    1
    19     4     5   ar
    20     5     6   ar
    21     6     7   ar
    22     7    10    1
    23    10    11    1
    24    11    12    1
    25    12    13    1
    26    13    14    1
    27    14    15    1
    28    15    16    1
    29    16    17    1
    30    17    18    1
    31    18    19    1
    32    20    19    1
    33    20    21    1
    34     7     8   ar
    35     8     9   ar
    36    33    24   ar
    37     9     4   ar
    38    32    27   ar
    39    21    13    1
    40    20    16    1
    41    22    23    1
@<TRIPOS>MOLECULE
*****
 37 41 0 0 0
SMALL
GASTEIGER

@<TRIPOS>ATOM
      1 S         142.1215  142.3829  164.5204 S.O2    1  UNL1        0.0736
      2 O         142.8398  141.2134  165.1254 O.2     1  UNL1       -0.1499
      3 O         141.4032  143.5525  163.9153 O.2     1  UNL1       -0.1499
      4 C         142.5819  141.9602  163.1568 C.ar    1  UNL1        0.1251
      5 C         143.8823  141.2300  162.9972 C.ar    1  UNL1        0.0199
      6 C         144.3427  140.8072  161.6336 C.ar    1  UNL1       -0.0029
      7 C         143.5026  141.1148  160.4296 C.ar    1  UNL1       -0.0221
      8 C         142.2021  141.8452  160.5892 C.ar    1  UNL1       -0.0029
      9 C         141.7418  142.2678  161.9528 C.ar    1  UNL1        0.0199
     10 C         143.9629  140.6922  159.0660 C.3     1  UNL1        0.0278
     11 C         143.2323  139.6082  158.3303 C.3     1  UNL1        0.0220
     12 C         142.9456  138.3022  159.0101 C.3     1  UNL1        0.0725
     13 N         141.8580  138.2154  160.0395 N.3     1  UNL1       -0.2703
     14 C         140.4408  138.5293  159.6615 C.3     1  UNL1        0.0897
     15 C         139.3532  138.4425  160.6910 C.3     1  UNL1        0.0896
     16 N         139.6829  138.0418  162.0983 N.3     1  UNL1       -0.2715
     17 C         138.8288  137.8712  163.3196 C.3     1  UNL1        0.0722
     18 C         139.7182  137.4518  164.4523 C.3     1  UNL1        0.0188
     19 C         141.1220  137.3633  163.9312 C.3     1  UNL1        0.0188
     20 C         141.1002  137.7280  162.4763 C.3     1  UNL1        0.0736
     21 C         142.1877  137.8147  161.4469 C.3     1  UNL1        0.0882
     22 N         141.6611  142.8057  165.8840 N.pl3   1  UNL1       -0.2153
     23 H         141.8687  143.7092  166.2155 H       1  UNL1        0.1737
     24 C         139.7816  141.0309  166.1431 C.ar    1  UNL1       -0.0075
     25 C         139.0050  140.0770  167.0016 C.ar    1  UNL1       -0.0015
     26 C         139.3314  139.9441  168.4595 C.ar    1  UNL1        0.0189
     27 C         140.4344  140.7651  169.0591 C.ar    1  UNL1        0.0825
     28 N         140.7608  140.6322  170.5171 N.ar    1  UNL1       -0.2438
     29 C         141.8638  141.4531  171.1165 C.ar    1  UNL1        0.0988
     30 C         142.6404  142.4070  170.2580 C.ar    1  UNL1        0.0207
     31 C         142.3140  142.5399  168.8000 C.ar    1  UNL1        0.0044
     32 C         141.2110  141.7189  168.2006 C.ar    1  UNL1        0.0320
     33 C         140.8846  141.8518  166.7425 C.ar    1  UNL1        0.0622
     34 C         139.4551  141.1637  164.6850 C.3     1  UNL1        0.0276
     35 C         137.9890  143.3049  164.8104 C.3     1  UNL1        0.0003
     36 C         138.2423  141.9347  164.2552 C.3     1  UNL1        0.0044
     37 C         137.2828  141.3354  163.2702 C.3     1  UNL1        0.0003
@<TRIPOS>BOND
     1    35    36    1
     2    36    37    1
     3    36    34    1
     4    34    24    1
     5    24    25   ar
     6    25    26   ar
     7    26    27   ar
     8    27    28   ar
     9    28    29   ar
    10    29    30   ar
    11    30    31   ar
    12    31    32   ar
    13    32    33   ar
    14    33    22    1
    15    22     1    1
    16     1     2    2
    17     1     3    2
    18     1     4    1
    19     4     5   ar
    20     5     6   ar
    21     6     7   ar
    22     7    10    1
    23    10    11    1
    24    11    12    1
    25    12    13    1
    26    13    14    1
    27    14    15    1
    28    15    16    1
    29    16    17    1
    30    17    18    1
    31    18    19    1
    32    20    19    1
    33    20    21    1
    34     7     8   ar
    35     8     9   ar
    36    33    24   ar
    37     9     4   ar
    38    32    27   ar
    39    21    13    1
    40    20    16    1
    41    22    23    1
@<TRIPOS>MOLECULE
*****
 37 41 0 0 0
SMALL
GASTEIGER

@<TRIPOS>ATOM
      1 S         142.7442  139.5863  163.8279 S.O2    1  UNL1        0.0736
      2 O         142.3979  140.8394  164.5760 O.2     1  UNL1       -0.1499
      3 O         143.0905  138.3331  163.0799 O.2     1  UNL1       -0.1499
      4 C         143.0265  140.3980  162.5986 C.ar    1  UNL1        0.1251
      5 C         142.7545  139.8219  161.2407 C.ar    1  UNL1        0.0199
      6 C         143.0368  140.6337  160.0113 C.ar    1  UNL1       -0.0029
      7 C         143.5911  142.0216  160.1399 C.ar    1  UNL1       -0.0221
      8 C         143.8631  142.5977  161.4979 C.ar    1  UNL1       -0.0029
      9 C         143.5808  141.7859  162.7272 C.ar    1  UNL1        0.0199
     10 C         143.8734  142.8334  158.9106 C.3     1  UNL1        0.0278
     11 C         142.7400  143.4237  158.1250 C.3     1  UNL1        0.0220
     12 C         141.9126  144.5267  158.7154 C.3     1  UNL1        0.0725
     13 N         140.8189  144.2044  159.6901 N.3     1  UNL1       -0.2703
     14 C         139.7335  143.2421  159.3081 C.3     1  UNL1        0.0897
     15 C         138.6398  142.9198  160.2828 C.3     1  UNL1        0.0896
     16 N         138.6315  143.5598  161.6394 N.3     1  UNL1       -0.2715
     17 C         137.6910  143.4369  162.8015 C.3     1  UNL1        0.0722
     18 C         138.1951  144.3233  163.9016 C.3     1  UNL1        0.0188
     19 C         139.4472  144.9940  163.4194 C.3     1  UNL1        0.0188
     20 C         139.7169  144.5221  162.0213 C.3     1  UNL1        0.0736
     21 C         140.8106  144.8445  161.0467 C.3     1  UNL1        0.0882
     22 N         142.4619  138.7744  165.0573 N.pl3   1  UNL1       -0.2153
     23 H         143.0878  138.0668  165.3344 H       1  UNL1        0.1737
     24 C         139.8819  138.6411  165.3321 C.ar    1  UNL1       -0.0075
     25 C         138.6460  138.9075  166.1393 C.ar    1  UNL1       -0.0015
     26 C         138.7542  139.5735  167.4789 C.ar    1  UNL1        0.0189
     27 C         140.0984  139.9731  168.0114 C.ar    1  UNL1        0.0825
     28 N         140.2066  140.6391  169.3511 N.ar    1  UNL1       -0.2438
     29 C         141.5507  141.0388  169.8835 C.ar    1  UNL1        0.0988
     30 C         142.7866  140.7724  169.0763 C.ar    1  UNL1        0.0207
     31 C         142.6784  140.1064  167.7367 C.ar    1  UNL1        0.0044
     32 C         141.3343  139.7068  167.2042 C.ar    1  UNL1        0.0320
     33 C         141.2260  139.0408  165.8645 C.ar    1  UNL1        0.0622
     34 C         139.7736  137.9751  163.9924 C.3     1  UNL1        0.0276
     35 C         138.2480  137.9158  161.8902 C.3     1  UNL1        0.0003
     36 C         139.1022  138.6847  162.8541 C.3     1  UNL1        0.0044
     37 C         139.2849  140.1633  162.6798 C.3     1  UNL1        0.0003
@<TRIPOS>BOND
     1    35    36    1
     2    36    37    1
     3    36    34    1
     4    34    24    1
     5    24    25   ar
     6    25    26   ar
     7    26    27   ar
     8    27    28   ar
     9    28    29   ar
    10    29    30   ar
    11    30    31   ar
    12    31    32   ar
    13    32    33   ar
    14    33    22    1
    15    22     1    1
    16     1     2    2
    17     1     3    2
    18     1     4    1
    19     4     5   ar
    20     5     6   ar
    21     6     7   ar
    22     7    10    1
    23    10    11    1
    24    11    12    1
    25    12    13    1
    26    13    14    1
    27    14    15    1
    28    15    16    1
    29    16    17    1
    30    17    18    1
    31    18    19    1
    32    20    19    1
    33    20    21    1
    34     7     8   ar
    35     8     9   ar
    36    33    24   ar
    37     9     4   ar
    38    32    27   ar
    39    21    13    1
    40    20    16    1
    41    22    23    1
@<TRIPOS>MOLECULE
*****
 37 41 0 0 0
SMALL
GASTEIGER

@<TRIPOS>ATOM
      1 S         143.0410  141.2163  164.7973 S.O2    1  UNL1        0.0736
      2 O         142.0337  142.2826  165.1108 O.2     1  UNL1       -0.1499
      3 O         144.0483  140.1501  164.4837 O.2     1  UNL1       -0.1499
      4 C         143.1221  141.7089  163.3828 C.ar    1  UNL1        0.1251
      5 C         143.8524  142.9818  163.0726 C.ar    1  UNL1        0.0199
      6 C         143.9335  143.4744  161.6581 C.ar    1  UNL1       -0.0029
      7 C         143.2842  142.6940  160.5538 C.ar    1  UNL1       -0.0221
      8 C         142.5538  141.4211  160.8640 C.ar    1  UNL1       -0.0029
      9 C         142.4728  140.9285  162.2785 C.ar    1  UNL1        0.0199
     10 C         143.3653  143.1866  159.1393 C.3     1  UNL1        0.0278
     11 C         142.1387  143.7182  158.4588 C.3     1  UNL1        0.0220
     12 C         141.2574  144.7052  159.1651 C.3     1  UNL1        0.0725
     13 N         140.2987  144.2351  160.2186 N.3     1  UNL1       -0.2703
     14 C         139.3181  143.1437  159.9070 C.3     1  UNL1        0.0897
     15 C         138.3594  142.6735  160.9606 C.3     1  UNL1        0.0896
     16 N         138.3814  143.2947  162.3257 N.3     1  UNL1       -0.2715
     17 C         137.5641  143.0404  163.5575 C.3     1  UNL1        0.0722
     18 C         138.0396  143.9746  164.6304 C.3     1  UNL1        0.0188
     19 C         139.1508  144.8063  164.0616 C.3     1  UNL1        0.0188
     20 C         139.3621  144.3861  162.6373 C.3     1  UNL1        0.0736
     21 C         140.3208  144.8563  161.5838 C.3     1  UNL1        0.0882
     22 N         142.9600  140.7237  166.2118 N.pl3   1  UNL1       -0.2153
     23 H         143.7846  140.5599  166.7240 H       1  UNL1        0.1737
     24 C         141.2339  141.2281  168.0870 C.ar    1  UNL1       -0.0075
     25 C         139.8964  140.9851  168.7211 C.ar    1  UNL1       -0.0015
     26 C         138.9475  139.9947  168.1140 C.ar    1  UNL1        0.0189
     27 C         139.3360  139.2473  166.8729 C.ar    1  UNL1        0.0825
     28 N         138.3870  138.2569  166.2658 N.ar    1  UNL1       -0.2438
     29 C         138.7756  137.5095  165.0247 C.ar    1  UNL1        0.0988
     30 C         140.1131  137.7525  164.3907 C.ar    1  UNL1        0.0207
     31 C         141.0620  138.7429  164.9977 C.ar    1  UNL1        0.0044
     32 C         140.6735  139.4903  166.2388 C.ar    1  UNL1        0.0320
     33 C         141.6225  140.4807  166.8459 C.ar    1  UNL1        0.0622
     34 C         142.1829  142.2186  168.6941 C.3     1  UNL1        0.0276
     35 C         144.3826  142.6453  170.0091 C.3     1  UNL1        0.0003
     36 C         143.2184  141.7595  169.6775 C.3     1  UNL1        0.0044
     37 C         143.0897  140.4146  170.3292 C.3     1  UNL1        0.0003
@<TRIPOS>BOND
     1    35    36    1
     2    36    37    1
     3    36    34    1
     4    34    24    1
     5    24    25   ar
     6    25    26   ar
     7    26    27   ar
     8    27    28   ar
     9    28    29   ar
    10    29    30   ar
    11    30    31   ar
    12    31    32   ar
    13    32    33   ar
    14    33    22    1
    15    22     1    1
    16     1     2    2
    17     1     3    2
    18     1     4    1
    19     4     5   ar
    20     5     6   ar
    21     6     7   ar
    22     7    10    1
    23    10    11    1
    24    11    12    1
    25    12    13    1
    26    13    14    1
    27    14    15    1
    28    15    16    1
    29    16    17    1
    30    17    18    1
    31    18    19    1
    32    20    19    1
    33    20    21    1
    34     7     8   ar
    35     8     9   ar
    36    33    24   ar
    37     9     4   ar
    38    32    27   ar
    39    21    13    1
    40    20    16    1
    41    22    23    1
@<TRIPOS>MOLECULE
*****
 37 41 0 0 0
SMALL
GASTEIGER

@<TRIPOS>ATOM
      1 S         143.3996  138.7580  160.9352 S.O2    1  UNL1        0.0736
      2 O         142.3949  137.6453  160.8863 O.2     1  UNL1       -0.1499
      3 O         144.4043  139.8707  160.9841 O.2     1  UNL1       -0.1499
      4 C         143.3416  138.7444  162.4340 C.ar    1  UNL1        0.1251
      5 C         144.4137  139.4253  163.2321 C.ar    1  UNL1        0.0199
      6 C         144.3557  139.4118  164.7310 C.ar    1  UNL1       -0.0029
      7 C         143.2258  138.7173  165.4316 C.ar    1  UNL1       -0.0221
      8 C         142.1537  138.0364  164.6334 C.ar    1  UNL1       -0.0029
      9 C         142.2117  138.0500  163.1346 C.ar    1  UNL1        0.0199
     10 C         143.1678  138.7038  166.9304 C.3     1  UNL1        0.0278
     11 C         142.5489  139.8543  167.6675 C.3     1  UNL1        0.0220
     12 C         141.0629  139.9065  167.8647 C.3     1  UNL1        0.0725
     13 N         140.1890  140.5320  166.8183 N.3     1  UNL1       -0.2703
     14 C         139.1831  139.6962  166.0837 C.3     1  UNL1        0.0897
     15 C         138.3092  140.3218  165.0372 C.3     1  UNL1        0.0896
     16 N         138.4412  141.7830  164.7254 N.3     1  UNL1       -0.2715
     17 C         137.7231  142.6707  163.7526 C.3     1  UNL1        0.0722
     18 C         138.2851  144.0550  163.8859 C.3     1  UNL1        0.0188
     19 C         139.3507  144.0229  164.9411 C.3     1  UNL1        0.0188
     20 C         139.4472  142.6188  165.4600 C.3     1  UNL1        0.0736
     21 C         140.3210  141.9933  166.5064 C.3     1  UNL1        0.0882
     22 N         143.4576  138.7716  159.4363 N.pl3   1  UNL1       -0.2153
     23 H         144.3283  138.7535  158.9772 H       1  UNL1        0.1737
     24 C         141.2117  139.9329  158.8383 C.ar    1  UNL1       -0.0075
     25 C         139.9431  139.9741  158.0391 C.ar    1  UNL1       -0.0015
     26 C         139.6516  138.8953  157.0385 C.ar    1  UNL1        0.0189
     27 C         140.6289  137.7752  156.8371 C.ar    1  UNL1        0.0825
     28 N         140.3374  136.6963  155.8366 N.ar    1  UNL1       -0.2438
     29 C         141.3146  135.5763  155.6353 C.ar    1  UNL1        0.0988
     30 C         142.5833  135.5351  156.4346 C.ar    1  UNL1        0.0207
     31 C         142.8747  136.6139  157.4351 C.ar    1  UNL1        0.0044
     32 C         141.8975  137.7339  157.6364 C.ar    1  UNL1        0.0320
     33 C         142.1889  138.8128  158.6370 C.ar    1  UNL1        0.0622
     34 C         141.5031  141.0117  159.8389 C.3     1  UNL1        0.0276
     35 C         141.2812  141.9141  162.2651 C.3     1  UNL1        0.0003
     36 C         140.8023  141.0138  161.1651 C.3     1  UNL1        0.0044
     37 C         139.6224  140.1155  161.3913 C.3     1  UNL1        0.0003
@<TRIPOS>BOND
     1    35    36    1
     2    36    37    1
     3    36    34    1
     4    34    24    1
     5    24    25   ar
     6    25    26   ar
     7    26    27   ar
     8    27    28   ar
     9    28    29   ar
    10    29    30   ar
    11    30    31   ar
    12    31    32   ar
    13    32    33   ar
    14    33    22    1
    15    22     1    1
    16     1     2    2
    17     1     3    2
    18     1     4    1
    19     4     5   ar
    20     5     6   ar
    21     6     7   ar
    22     7    10    1
    23    10    11    1
    24    11    12    1
    25    12    13    1
    26    13    14    1
    27    14    15    1
    28    15    16    1
    29    16    17    1
    30    17    18    1
    31    18    19    1
    32    20    19    1
    33    20    21    1
    34     7     8   ar
    35     8     9   ar
    36    33    24   ar
    37     9     4   ar
    38    32    27   ar
    39    21    13    1
    40    20    16    1
    41    22    23    1
@<TRIPOS>MOLECULE
*****
 37 41 0 0 0
SMALL
GASTEIGER

@<TRIPOS>ATOM
      1 S         142.2151  141.8634  164.6240 S.O2    1  UNL1        0.0736
      2 O         142.7520  140.7989  163.7138 O.2     1  UNL1       -0.1499
      3 O         141.6781  142.9279  165.5343 O.2     1  UNL1       -0.1499
      4 C         141.8737  142.7094  163.4334 C.ar    1  UNL1        0.1251
      5 C         140.7039  143.6466  163.4899 C.ar    1  UNL1        0.0199
      6 C         140.3625  144.4927  162.2992 C.ar    1  UNL1       -0.0029
      7 C         141.1908  144.4014  161.0520 C.ar    1  UNL1       -0.0221
      8 C         142.3606  143.4640  160.9955 C.ar    1  UNL1       -0.0029
      9 C         142.7020  142.6181  162.1862 C.ar    1  UNL1        0.0199
     10 C         140.8495  145.2473  159.8613 C.3     1  UNL1        0.0278
     11 C         140.7113  144.6161  158.5076 C.3     1  UNL1        0.0220
     12 C         139.5576  143.7014  158.2207 C.3     1  UNL1        0.0725
     13 N         139.5262  142.3248  158.8155 N.3     1  UNL1       -0.2703
     14 C         140.4507  141.2629  158.2982 C.3     1  UNL1        0.0897
     15 C         140.4192  139.8862  158.8930 C.3     1  UNL1        0.0896
     16 N         139.4632  139.5714  160.0052 N.3     1  UNL1       -0.2715
     17 C         139.2066  138.3145  160.7826 C.3     1  UNL1        0.0722
     18 C         138.1235  138.5995  161.7804 C.3     1  UNL1        0.0188
     19 C         137.7107  140.0326  161.6197 C.3     1  UNL1        0.0188
     20 C         138.5386  140.6333  160.5225 C.3     1  UNL1        0.0736
     21 C         138.5701  142.0099  159.9277 C.3     1  UNL1        0.0882
     22 N         142.5564  141.0174  165.8148 N.pl3   1  UNL1       -0.2153
     23 H         143.4483  140.6069  165.8876 H       1  UNL1        0.1737
     24 C         140.2737  140.0503  166.5919 C.ar    1  UNL1       -0.0075
     25 C         139.2562  139.8299  167.6718 C.ar    1  UNL1       -0.0015
     26 C         139.5039  140.3561  169.0544 C.ar    1  UNL1        0.0189
     27 C         140.7692  141.1028  169.3572 C.ar    1  UNL1        0.0825
     28 N         141.0169  141.6290  170.7398 N.ar    1  UNL1       -0.2438
     29 C         142.2821  142.3757  171.0426 C.ar    1  UNL1        0.0988
     30 C         143.2996  142.5961  169.9627 C.ar    1  UNL1        0.0207
     31 C         143.0519  142.0699  168.5801 C.ar    1  UNL1        0.0044
     32 C         141.7867  141.3232  168.2774 C.ar    1  UNL1        0.0320
     33 C         141.5389  140.7970  166.8947 C.ar    1  UNL1        0.0622
     34 C         140.0260  139.5241  165.2092 C.3     1  UNL1        0.0276
     35 C         138.6930  137.2940  165.2122 C.3     1  UNL1        0.0003
     36 C         139.9687  138.0445  164.9690 C.3     1  UNL1        0.0044
     37 C         141.1873  137.3155  164.4854 C.3     1  UNL1        0.0003
@<TRIPOS>BOND
     1    35    36    1
     2    36    37    1
     3    36    34    1
     4    34    24    1
     5    24    25   ar
     6    25    26   ar
     7    26    27   ar
     8    27    28   ar
     9    28    29   ar
    10    29    30   ar
    11    30    31   ar
    12    31    32   ar
    13    32    33   ar
    14    33    22    1
    15    22     1    1
    16     1     2    2
    17     1     3    2
    18     1     4    1
    19     4     5   ar
    20     5     6   ar
    21     6     7   ar
    22     7    10    1
    23    10    11    1
    24    11    12    1
    25    12    13    1
    26    13    14    1
    27    14    15    1
    28    15    16    1
    29    16    17    1
    30    17    18    1
    31    18    19    1
    32    20    19    1
    33    20    21    1
    34     7     8   ar
    35     8     9   ar
    36    33    24   ar
    37     9     4   ar
    38    32    27   ar
    39    21    13    1
    40    20    16    1
    41    22    23    1
@<TRIPOS>MOLECULE
*****
 37 41 0 0 0
SMALL
GASTEIGER

@<TRIPOS>ATOM
      1 S         142.2580  138.0959  161.1233 S.O2    1  UNL1        0.0736
      2 O         143.4033  137.9771  162.0846 O.2     1  UNL1       -0.1499
      3 O         141.1128  138.2146  160.1619 O.2     1  UNL1       -0.1499
      4 C         141.2896  137.9199  162.2552 C.ar    1  UNL1        0.1251
      5 C         141.7968  137.6545  163.6416 C.ar    1  UNL1        0.0199
      6 C         140.8284  137.4785  164.7736 C.ar    1  UNL1       -0.0029
      7 C         139.3529  137.5680  164.5190 C.ar    1  UNL1       -0.0221
      8 C         138.8457  137.8334  163.1325 C.ar    1  UNL1       -0.0029
      9 C         139.8141  138.0094  162.0006 C.ar    1  UNL1        0.0199
     10 C         138.3845  137.3920  165.6509 C.3     1  UNL1        0.0278
     11 C         138.0346  138.5584  166.5269 C.3     1  UNL1        0.0220
     12 C         139.0938  139.5447  166.9209 C.3     1  UNL1        0.0725
     13 N         139.2068  140.8533  166.1965 N.3     1  UNL1       -0.2703
     14 C         140.1861  141.8881  166.6656 C.3     1  UNL1        0.0897
     15 C         140.2991  143.1967  165.9411 C.3     1  UNL1        0.0896
     16 N         139.4329  143.4705  164.7476 N.3     1  UNL1       -0.2715
     17 C         139.3219  144.6591  163.8394 C.3     1  UNL1        0.0722
     18 C         138.2740  144.3589  162.8089 C.3     1  UNL1        0.0188
     19 C         137.7373  142.9847  163.0803 C.3     1  UNL1        0.0188
     20 C         138.4536  142.4356  164.2785 C.3     1  UNL1        0.0736
     21 C         138.3405  141.1271  165.0029 C.3     1  UNL1        0.0882
     22 N         143.2264  138.2718  159.9913 N.pl3   1  UNL1       -0.2153
     23 H         144.0339  137.7107  159.9426 H       1  UNL1        0.1737
     24 C         142.9228  140.7571  159.2978 C.ar    1  UNL1       -0.0075
     25 C         142.6608  141.7880  158.2401 C.ar    1  UNL1       -0.0015
     26 C         142.4405  141.3643  156.8182 C.ar    1  UNL1        0.0189
     27 C         142.4821  139.9098  156.4539 C.ar    1  UNL1        0.0825
     28 N         142.2618  139.4861  155.0320 N.ar    1  UNL1       -0.2438
     29 C         142.3034  138.0317  154.6677 C.ar    1  UNL1        0.0988
     30 C         142.5654  137.0008  155.7254 C.ar    1  UNL1        0.0207
     31 C         142.7858  137.4245  157.1474 C.ar    1  UNL1        0.0044
     32 C         142.7441  138.8789  157.5116 C.ar    1  UNL1        0.0320
     33 C         142.9645  139.3027  158.9336 C.ar    1  UNL1        0.0622
     34 C         143.1431  141.1809  160.7198 C.3     1  UNL1        0.0276
     35 C         140.6142  141.7003  161.0107 C.3     1  UNL1        0.0003
     36 C         141.9684  141.4607  161.6096 C.3     1  UNL1        0.0044
     37 C         142.1480  141.5008  163.0983 C.3     1  UNL1        0.0003
@<TRIPOS>BOND
     1    35    36    1
     2    36    37    1
     3    36    34    1
     4    34    24    1
     5    24    25   ar
     6    25    26   ar
     7    26    27   ar
     8    27    28   ar
     9    28    29   ar
    10    29    30   ar
    11    30    31   ar
    12    31    32   ar
    13    32    33   ar
    14    33    22    1
    15    22     1    1
    16     1     2    2
    17     1     3    2
    18     1     4    1
    19     4     5   ar
    20     5     6   ar
    21     6     7   ar
    22     7    10    1
    23    10    11    1
    24    11    12    1
    25    12    13    1
    26    13    14    1
    27    14    15    1
    28    15    16    1
    29    16    17    1
    30    17    18    1
    31    18    19    1
    32    20    19    1
    33    20    21    1
    34     7     8   ar
    35     8     9   ar
    36    33    24   ar
    37     9     4   ar
    38    32    27   ar
    39    21    13    1
    40    20    16    1
    41    22    23    1
@<TRIPOS>MOLECULE
*****
 37 41 0 0 0
SMALL
GASTEIGER

@<TRIPOS>ATOM
      1 S         138.5718  139.2430  161.0493 S.O2    1  UNL1        0.0736
      2 O         138.7298  137.7514  161.0647 O.2     1  UNL1       -0.1499
      3 O         138.4138  140.7345  161.0339 O.2     1  UNL1       -0.1499
      4 C         138.5170  139.2527  162.5482 C.ar    1  UNL1        0.1251
      5 C         138.9328  138.0367  163.3218 C.ar    1  UNL1        0.0199
      6 C         138.8781  138.0464  164.8208 C.ar    1  UNL1       -0.0029
      7 C         138.4075  139.2721  165.5462 C.ar    1  UNL1       -0.0221
      8 C         137.9917  140.4881  164.7726 C.ar    1  UNL1       -0.0029
      9 C         138.0464  140.4784  163.2736 C.ar    1  UNL1        0.0199
     10 C         138.3527  139.2818  167.0451 C.3     1  UNL1        0.0278
     11 C         139.5536  139.7075  167.8368 C.3     1  UNL1        0.0220
     12 C         140.3685  140.8844  167.3888 C.3     1  UNL1        0.0725
     13 N         141.5987  140.6719  166.5572 N.3     1  UNL1       -0.2703
     14 C         142.0701  139.2799  166.2575 C.3     1  UNL1        0.0897
     15 C         143.3003  139.0674  165.4259 C.3     1  UNL1        0.0896
     16 N         144.0590  140.2470  164.8940 N.3     1  UNL1       -0.2715
     17 C         145.2968  140.3479  164.0528 C.3     1  UNL1        0.0722
     18 C         145.5904  141.8023  163.8325 C.3     1  UNL1        0.0188
     19 C         144.5340  142.6003  164.5378 C.3     1  UNL1        0.0188
     20 C         143.5876  141.6391  165.1938 C.3     1  UNL1        0.0736
     21 C         142.3574  141.8516  166.0254 C.3     1  UNL1        0.0882
     22 N         138.6266  139.2333  159.5503 N.pl3   1  UNL1       -0.2153
     23 H         137.9912  138.6827  159.0380 H       1  UNL1        0.1737
     24 C         141.1109  139.8057  159.0501 C.ar    1  UNL1       -0.0075
     25 C         142.1337  140.6350  158.3317 C.ar    1  UNL1       -0.0015
     26 C         141.6949  141.7212  157.3949 C.ar    1  UNL1        0.0189
     27 C         140.2333  141.9781  157.1765 C.ar    1  UNL1        0.0825
     28 N         139.7944  143.0643  156.2398 N.ar    1  UNL1       -0.2438
     29 C         138.3329  143.3212  156.0214 C.ar    1  UNL1        0.0988
     30 C         137.3101  142.4919  156.7399 C.ar    1  UNL1        0.0207
     31 C         137.7489  141.4058  157.6767 C.ar    1  UNL1        0.0044
     32 C         139.2105  141.1489  157.8950 C.ar    1  UNL1        0.0320
     33 C         139.6493  140.0626  158.8318 C.ar    1  UNL1        0.0622
     34 C         141.5498  138.7195  159.9869 C.3     1  UNL1        0.0276
     35 C         142.0330  140.3162  161.9787 C.3     1  UNL1        0.0003
     36 C         142.3400  139.0622  161.2150 C.3     1  UNL1        0.0044
     37 C         143.4373  138.1509  161.6793 C.3     1  UNL1        0.0003
@<TRIPOS>BOND
     1    35    36    1
     2    36    37    1
     3    36    34    1
     4    34    24    1
     5    24    25   ar
     6    25    26   ar
     7    26    27   ar
     8    27    28   ar
     9    28    29   ar
    10    29    30   ar
    11    30    31   ar
    12    31    32   ar
    13    32    33   ar
    14    33    22    1
    15    22     1    1
    16     1     2    2
    17     1     3    2
    18     1     4    1
    19     4     5   ar
    20     5     6   ar
    21     6     7   ar
    22     7    10    1
    23    10    11    1
    24    11    12    1
    25    12    13    1
    26    13    14    1
    27    14    15    1
    28    15    16    1
    29    16    17    1
    30    17    18    1
    31    18    19    1
    32    20    19    1
    33    20    21    1
    34     7     8   ar
    35     8     9   ar
    36    33    24   ar
    37     9     4   ar
    38    32    27   ar
    39    21    13    1
    40    20    16    1
    41    22    23    1
