@<TRIPOS>MOLECULE
*****
 26 29 0 0 0
SMALL
GASTEIGER

@<TRIPOS>ATOM
      1 C         138.7717  140.2852  165.8765 C.ar    1  UNL1        0.2446
      2 N         139.6482  140.6816  167.0274 N.ar    1  UNL1       -0.2102
      3 C         140.2783  142.0425  167.0563 C.ar    1  UNL1        0.0890
      4 C         140.0318  143.0071  165.9344 C.ar    1  UNL1        0.0401
      5 C         139.1553  142.6107  164.7834 C.ar    1  UNL1        0.1051
      6 N         138.9088  143.5753  163.6615 N.ar    1  UNL1       -0.2405
      7 C         138.0323  143.1789  162.5106 C.ar    1  UNL1        0.1195
      8 C         137.4023  141.8179  162.4816 C.ar    1  UNL1        0.1197
      9 N         137.6487  140.8534  163.6036 N.ar    1  UNL1       -0.2360
     10 C         138.5252  141.2498  164.7545 C.ar    1  UNL1        0.1519
     11 C         141.1548  142.4389  168.2073 C.ar    1  UNL1        0.0574
     12 C         140.7217  143.2040  169.4226 C.ar    1  UNL1        0.1231
     13 N         141.9175  143.3777  170.3114 N.ar    1  UNL1       -0.1675
     14 N         143.0896  142.7199  169.6454 N.ar    1  UNL1       -0.2473
     15 C         144.4875  142.6539  170.1850 C.3     1  UNL1        0.1538
     16 C         142.6182  142.1397  168.3449 C.ar    1  UNL1        0.0982
     17 O         138.1417  138.9242  165.8475 O.3     1  UNL1       -0.4577
     18 C         138.9239  137.7461  165.3474 C.3     1  UNL1        0.2243
     19 C         141.8808  138.2486  165.2805 C.3     1  UNL1        0.0898
     20 N         141.1201  138.0771  163.9992 N.3     1  UNL1       -0.2672
     21 C         141.8377  138.1568  162.6845 C.3     1  UNL1        0.0895
     22 C         141.0769  137.9852  161.4031 C.3     1  UNL1        0.0862
     23 N         139.5985  137.7340  161.4366 N.3     1  UNL1       -0.2951
     24 C         138.8808  137.6543  162.7513 C.3     1  UNL1        0.0886
     25 C         139.6416  137.8258  164.0326 C.3     1  UNL1        0.1176
     26 H         139.4398  136.8461  160.9602 H       1  UNL1        0.1233
@<TRIPOS>BOND
     1    19    20    1
     2    20    21    1
     3    21    22    1
     4    22    23    1
     5    23    24    1
     6    24    25    1
     7    25    18    1
     8    18    17    1
     9    17     1    1
    10     1     2   ar
    11     2     3   ar
    12     3    11    1
    13    11    12   ar
    14    12    13   ar
    15    13    14   ar
    16    14    15    1
    17    14    16   ar
    18     3     4   ar
    19     4     5   ar
    20     5     6   ar
    21     6     7   ar
    22     7     8   ar
    23     8     9   ar
    24     9    10   ar
    25    25    20    1
    26    10     1   ar
    27    16    11   ar
    28    10     5   ar
    29    23    26    1
@<TRIPOS>MOLECULE
*****
 26 29 0 0 0
SMALL
GASTEIGER

@<TRIPOS>ATOM
      1 C         138.8321  140.2530  166.0116 C.ar    1  UNL1        0.2446
      2 N         138.6962  141.2141  164.8681 N.ar    1  UNL1       -0.2102
      3 C         139.3876  142.5442  164.9201 C.ar    1  UNL1        0.0890
      4 C         140.2149  142.9133  166.1156 C.ar    1  UNL1        0.0401
      5 C         140.3509  141.9521  167.2592 C.ar    1  UNL1        0.1051
      6 N         141.1782  142.3212  168.4547 N.ar    1  UNL1       -0.2405
      7 C         141.3141  141.3600  169.5983 C.ar    1  UNL1        0.1195
      8 C         140.6227  140.0299  169.5463 C.ar    1  UNL1        0.1197
      9 N         139.7954  139.6609  168.3508 N.ar    1  UNL1       -0.2360
     10 C         139.6595  140.6220  167.2072 C.ar    1  UNL1        0.1519
     11 C         139.2516  143.5054  163.7765 C.ar    1  UNL1        0.0574
     12 C         138.0232  144.2923  163.4275 C.ar    1  UNL1        0.1231
     13 N         138.3325  145.1216  162.2164 N.ar    1  UNL1       -0.1675
     14 N         139.7521  144.8472  161.8170 N.ar    1  UNL1       -0.2473
     15 C         140.4764  145.4634  160.6570 C.3     1  UNL1        0.1538
     16 C         140.3201  143.8483  162.7811 C.ar    1  UNL1        0.0982
     17 O         138.1407  138.9228  165.9596 O.3     1  UNL1       -0.4577
     18 C         138.8511  137.7300  165.3917 C.3     1  UNL1        0.2243
     19 C         141.8083  138.2101  165.2349 C.3     1  UNL1        0.0898
     20 N         141.0043  138.0650  163.9769 N.3     1  UNL1       -0.2672
     21 C         141.6789  138.1598  162.6405 C.3     1  UNL1        0.0895
     22 C         140.8748  138.0147  161.3825 C.3     1  UNL1        0.0862
     23 N         139.3963  137.7746  161.4610 N.3     1  UNL1       -0.2951
     24 C         138.7217  137.6798  162.7973 C.3     1  UNL1        0.0886
     25 C         139.5257  137.8249  164.0553 C.3     1  UNL1        0.1176
     26 H         139.2146  136.8957  160.9763 H       1  UNL1        0.1233
@<TRIPOS>BOND
     1    19    20    1
     2    20    21    1
     3    21    22    1
     4    22    23    1
     5    23    24    1
     6    24    25    1
     7    25    18    1
     8    18    17    1
     9    17     1    1
    10     1     2   ar
    11     2     3   ar
    12     3    11    1
    13    11    12   ar
    14    12    13   ar
    15    13    14   ar
    16    14    15    1
    17    14    16   ar
    18     3     4   ar
    19     4     5   ar
    20     5     6   ar
    21     6     7   ar
    22     7     8   ar
    23     8     9   ar
    24     9    10   ar
    25    25    20    1
    26    10     1   ar
    27    16    11   ar
    28    10     5   ar
    29    23    26    1
@<TRIPOS>MOLECULE
*****
 26 29 0 0 0
SMALL
GASTEIGER

@<TRIPOS>ATOM
      1 C         140.8093  140.4597  166.4808 C.ar    1  UNL1        0.2446
      2 N         140.3081  141.3100  165.3513 N.ar    1  UNL1       -0.2102
      3 C         139.9079  142.7333  165.6043 C.ar    1  UNL1        0.0890
      4 C         140.0091  143.3064  166.9868 C.ar    1  UNL1        0.0401
      5 C         140.5104  142.4561  168.1164 C.ar    1  UNL1        0.1051
      6 N         140.6115  143.0291  169.4989 N.ar    1  UNL1       -0.2405
      7 C         141.1128  142.1789  170.6283 C.ar    1  UNL1        0.1195
      8 C         141.5129  140.7555  170.3753 C.ar    1  UNL1        0.1197
      9 N         141.4118  140.1825  168.9928 N.ar    1  UNL1       -0.2360
     10 C         140.9105  141.0328  167.8634 C.ar    1  UNL1        0.1519
     11 C         139.4066  143.5836  164.4748 C.ar    1  UNL1        0.0574
     12 C         138.0225  143.5559  163.8975 C.ar    1  UNL1        0.1231
     13 N         137.9618  144.5660  162.7901 N.ar    1  UNL1       -0.1675
     14 N         139.3086  145.2179  162.6832 N.ar    1  UNL1       -0.2473
     15 C         139.6946  146.2889  161.7066 C.3     1  UNL1        0.1538
     16 C         140.2015  144.6108  163.7244 C.ar    1  UNL1        0.0982
     17 O         141.2095  139.0364  166.2277 O.3     1  UNL1       -0.4577
     18 C         142.5401  138.7305  165.6067 C.3     1  UNL1        0.2243
     19 C         144.8552  139.7475  163.9923 C.3     1  UNL1        0.0898
     20 N         143.7874  138.9236  163.3358 N.3     1  UNL1       -0.2672
     21 C         143.8772  138.6082  161.8721 C.3     1  UNL1        0.0895
     22 C         142.8094  137.7842  161.2155 C.3     1  UNL1        0.0862
     23 N         141.6519  137.2757  162.0227 N.3     1  UNL1       -0.2951
     24 C         141.5622  137.5911  163.4864 C.3     1  UNL1        0.0886
     25 C         142.6299  138.4150  164.1430 C.3     1  UNL1        0.1176
     26 H         141.6597  136.2590  161.9405 H       1  UNL1        0.1233
@<TRIPOS>BOND
     1    19    20    1
     2    20    21    1
     3    21    22    1
     4    22    23    1
     5    23    24    1
     6    24    25    1
     7    25    18    1
     8    18    17    1
     9    17     1    1
    10     1     2   ar
    11     2     3   ar
    12     3    11    1
    13    11    12   ar
    14    12    13   ar
    15    13    14   ar
    16    14    15    1
    17    14    16   ar
    18     3     4   ar
    19     4     5   ar
    20     5     6   ar
    21     6     7   ar
    22     7     8   ar
    23     8     9   ar
    24     9    10   ar
    25    25    20    1
    26    10     1   ar
    27    16    11   ar
    28    10     5   ar
    29    23    26    1
@<TRIPOS>MOLECULE
*****
 26 29 0 0 0
SMALL
GASTEIGER

@<TRIPOS>ATOM
      1 C         142.0616  141.2210  166.5545 C.ar    1  UNL1        0.2446
      2 N         141.1696  141.2518  165.3490 N.ar    1  UNL1       -0.2102
      3 C         139.7351  140.8294  165.4665 C.ar    1  UNL1        0.0890
      4 C         139.1926  140.3763  166.7895 C.ar    1  UNL1        0.0401
      5 C         140.0847  140.3455  167.9951 C.ar    1  UNL1        0.1051
      6 N         139.5422  139.8923  169.3181 N.ar    1  UNL1       -0.2405
      7 C         140.4343  139.8615  170.5236 C.ar    1  UNL1        0.1195
      8 C         141.8688  140.2839  170.4061 C.ar    1  UNL1        0.1197
      9 N         142.4112  140.7370  169.0831 N.ar    1  UNL1       -0.2360
     10 C         141.5192  140.7678  167.8776 C.ar    1  UNL1        0.1519
     11 C         138.8430  140.8602  164.2610 C.ar    1  UNL1        0.0574
     12 C         137.7785  141.8784  163.9777 C.ar    1  UNL1        0.1231
     13 N         137.1364  141.5257  162.6687 N.ar    1  UNL1       -0.1675
     14 N         137.8042  140.2896  162.1430 N.ar    1  UNL1       -0.2473
     15 C         137.4750  139.5880  160.8588 C.3     1  UNL1        0.1538
     16 C         138.8589  139.8784  163.1271 C.ar    1  UNL1        0.0982
     17 O         143.4961  141.6433  166.4370 O.3     1  UNL1       -0.4577
     18 C         143.8505  142.8965  165.6928 C.3     1  UNL1        0.2243
     19 C         142.1435  144.3528  163.7014 C.3     1  UNL1        0.0898
     20 N         143.3290  143.5606  163.2357 N.3     1  UNL1       -0.2672
     21 C         143.6611  143.4965  161.7743 C.3     1  UNL1        0.0895
     22 C         144.8466  142.7043  161.3086 C.3     1  UNL1        0.0862
     23 N         145.7001  141.9761  162.3043 N.3     1  UNL1       -0.2951
     24 C         145.3680  142.0402  163.7657 C.3     1  UNL1        0.0886
     25 C         144.1825  142.8324  164.2314 C.3     1  UNL1        0.1176
     26 H         146.6476  142.3395  162.2014 H       1  UNL1        0.1233
@<TRIPOS>BOND
     1    19    20    1
     2    20    21    1
     3    21    22    1
     4    22    23    1
     5    23    24    1
     6    24    25    1
     7    25    18    1
     8    18    17    1
     9    17     1    1
    10     1     2   ar
    11     2     3   ar
    12     3    11    1
    13    11    12   ar
    14    12    13   ar
    15    13    14   ar
    16    14    15    1
    17    14    16   ar
    18     3     4   ar
    19     4     5   ar
    20     5     6   ar
    21     6     7   ar
    22     7     8   ar
    23     8     9   ar
    24     9    10   ar
    25    25    20    1
    26    10     1   ar
    27    16    11   ar
    28    10     5   ar
    29    23    26    1
@<TRIPOS>MOLECULE
*****
 26 29 0 0 0
SMALL
GASTEIGER

@<TRIPOS>ATOM
      1 C         141.4637  138.4150  164.8142 C.ar    1  UNL1        0.2446
      2 N         141.5296  139.1820  166.1015 N.ar    1  UNL1       -0.2102
      3 C         142.5161  140.3011  166.2581 C.ar    1  UNL1        0.0890
      4 C         143.4367  140.6531  165.1274 C.ar    1  UNL1        0.0401
      5 C         143.3708  139.8860  163.8400 C.ar    1  UNL1        0.1051
      6 N         144.2914  140.2381  162.7093 N.ar    1  UNL1       -0.2405
      7 C         144.2255  139.4710  161.4219 C.ar    1  UNL1        0.1195
      8 C         143.2390  138.3519  161.2653 C.ar    1  UNL1        0.1197
      9 N         142.3184  137.9999  162.3961 N.ar    1  UNL1       -0.2360
     10 C         142.3843  138.7670  163.6834 C.ar    1  UNL1        0.1519
     11 C         142.5820  141.0681  167.5455 C.ar    1  UNL1        0.0574
     12 C         143.3746  142.3185  167.7872 C.ar    1  UNL1        0.1231
     13 N         143.1493  142.7427  169.2083 N.ar    1  UNL1       -0.1675
     14 N         142.2175  141.7544  169.8448 N.ar    1  UNL1       -0.2473
     15 C         141.7231  141.7941  171.2603 C.3     1  UNL1        0.1538
     16 C         141.8669  140.7195  168.8171 C.ar    1  UNL1        0.0982
     17 O         140.4772  137.2959  164.6576 O.3     1  UNL1       -0.4577
     18 C         139.0059  137.5874  164.6587 C.3     1  UNL1        0.2243
     19 C         138.6785  138.0326  161.7100 C.3     1  UNL1        0.0898
     20 N         138.3385  139.1283  162.6762 N.3     1  UNL1       -0.2672
     21 C         137.8347  140.4467  162.1681 C.3     1  UNL1        0.0895
     22 C         137.4946  141.5425  163.1344 C.3     1  UNL1        0.0862
     23 N         137.6583  141.3199  164.6087 N.3     1  UNL1       -0.2951
     24 C         138.1621  140.0016  165.1168 C.3     1  UNL1        0.0886
     25 C         138.5021  138.9058  164.1506 C.3     1  UNL1        0.1176
     26 H         136.7424  141.4683  165.0323 H       1  UNL1        0.1233
@<TRIPOS>BOND
     1    19    20    1
     2    20    21    1
     3    21    22    1
     4    22    23    1
     5    23    24    1
     6    24    25    1
     7    25    18    1
     8    18    17    1
     9    17     1    1
    10     1     2   ar
    11     2     3   ar
    12     3    11    1
    13    11    12   ar
    14    12    13   ar
    15    13    14   ar
    16    14    15    1
    17    14    16   ar
    18     3     4   ar
    19     4     5   ar
    20     5     6   ar
    21     6     7   ar
    22     7     8   ar
    23     8     9   ar
    24     9    10   ar
    25    25    20    1
    26    10     1   ar
    27    16    11   ar
    28    10     5   ar
    29    23    26    1
@<TRIPOS>MOLECULE
*****
 26 29 0 0 0
SMALL
GASTEIGER

@<TRIPOS>ATOM
      1 C         140.4866  139.7904  166.6225 C.ar    1  UNL1        0.2446
      2 N         141.3873  140.1129  165.4672 N.ar    1  UNL1       -0.2102
      3 C         142.6985  140.8007  165.7077 C.ar    1  UNL1        0.0890
      4 C         143.1090  141.1658  167.1034 C.ar    1  UNL1        0.0401
      5 C         142.2083  140.8433  168.2588 C.ar    1  UNL1        0.1051
      6 N         142.6188  141.2085  169.6545 N.ar    1  UNL1       -0.2405
      7 C         141.7182  140.8860  170.8097 C.ar    1  UNL1        0.1195
      8 C         140.4070  140.1983  170.5693 C.ar    1  UNL1        0.1197
      9 N         139.9964  139.8331  169.1736 N.ar    1  UNL1       -0.2360
     10 C         140.8971  140.1556  168.0183 C.ar    1  UNL1        0.1519
     11 C         143.5992  141.1232  164.5523 C.ar    1  UNL1        0.0574
     12 C         144.9663  140.5537  164.3145 C.ar    1  UNL1        0.1231
     13 N         145.5030  141.1504  163.0472 N.ar    1  UNL1       -0.1675
     14 N         144.4674  142.0885  162.5017 N.ar    1  UNL1       -0.2473
     15 C         144.5873  142.9008  161.2465 C.3     1  UNL1        0.1538
     16 C         143.2908  142.0717  163.4320 C.ar    1  UNL1        0.0982
     17 O         139.1754  139.1027  166.3821 O.3     1  UNL1       -0.4577
     18 C         138.2554  139.5972  165.3055 C.3     1  UNL1        0.2243
     19 C         137.3590  141.3672  163.0553 C.3     1  UNL1        0.0898
     20 N         138.0167  140.0522  162.7587 N.3     1  UNL1       -0.2672
     21 C         138.2263  139.6221  161.3371 C.3     1  UNL1        0.0895
     22 C         138.8841  138.3070  161.0406 C.3     1  UNL1        0.0862
     23 N         139.3323  137.4220  162.1657 N.3     1  UNL1       -0.2951
     24 C         139.1228  137.8521  163.5873 C.3     1  UNL1        0.0886
     25 C         138.4650  139.1671  163.8839 C.3     1  UNL1        0.1176
     26 H         140.3351  137.2789  162.0461 H       1  UNL1        0.1233
@<TRIPOS>BOND
     1    19    20    1
     2    20    21    1
     3    21    22    1
     4    22    23    1
     5    23    24    1
     6    24    25    1
     7    25    18    1
     8    18    17    1
     9    17     1    1
    10     1     2   ar
    11     2     3   ar
    12     3    11    1
    13    11    12   ar
    14    12    13   ar
    15    13    14   ar
    16    14    15    1
    17    14    16   ar
    18     3     4   ar
    19     4     5   ar
    20     5     6   ar
    21     6     7   ar
    22     7     8   ar
    23     8     9   ar
    24     9    10   ar
    25    25    20    1
    26    10     1   ar
    27    16    11   ar
    28    10     5   ar
    29    23    26    1
@<TRIPOS>MOLECULE
*****
 26 29 0 0 0
SMALL
GASTEIGER

@<TRIPOS>ATOM
      1 C         142.4687  140.5876  166.5690 C.ar    1  UNL1        0.2446
      2 N         141.7598  141.4552  165.5717 N.ar    1  UNL1       -0.2102
      3 C         140.8224  142.5273  166.0427 C.ar    1  UNL1        0.0890
      4 C         140.5940  142.7318  167.5110 C.ar    1  UNL1        0.0401
      5 C         141.3029  141.8642  168.5084 C.ar    1  UNL1        0.1051
      6 N         141.0744  142.0687  169.9767 N.ar    1  UNL1       -0.2405
      7 C         141.7834  141.2010  170.9740 C.ar    1  UNL1        0.1195
      8 C         142.7207  140.1289  170.5029 C.ar    1  UNL1        0.1197
      9 N         142.9492  139.9244  169.0346 N.ar    1  UNL1       -0.2360
     10 C         142.2403  140.7920  168.0374 C.ar    1  UNL1        0.1519
     11 C         140.1135  143.3950  165.0454 C.ar    1  UNL1        0.0574
     12 C         138.6279  143.4977  164.8648 C.ar    1  UNL1        0.1231
     13 N         138.3619  144.4785  163.7613 N.ar    1  UNL1       -0.1675
     14 N         139.6831  144.9818  163.2600 N.ar    1  UNL1       -0.2473
     15 C         139.8861  145.9794  162.1586 C.3     1  UNL1        0.1538
     16 C         140.7656  144.3121  164.0536 C.ar    1  UNL1        0.0982
     17 O         143.4061  139.5154  166.0980 O.3     1  UNL1       -0.4577
     18 C         143.5245  139.2130  164.6336 C.3     1  UNL1        0.2243
     19 C         141.9770  140.0634  162.2082 C.3     1  UNL1        0.0898
     20 N         143.3233  140.6632  162.4873 N.3     1  UNL1       -0.2672
     21 C         143.8958  141.6881  161.5536 C.3     1  UNL1        0.0895
     22 C         145.2421  142.2879  161.8327 C.3     1  UNL1        0.0862
     23 N         146.0158  141.8627  163.0453 N.3     1  UNL1       -0.2951
     24 C         145.4433  140.8377  163.9790 C.3     1  UNL1        0.0886
     25 C         144.0970  140.2380  163.7000 C.3     1  UNL1        0.1176
     26 H         146.1828  142.7037  163.5979 H       1  UNL1        0.1233
@<TRIPOS>BOND
     1    19    20    1
     2    20    21    1
     3    21    22    1
     4    22    23    1
     5    23    24    1
     6    24    25    1
     7    25    18    1
     8    18    17    1
     9    17     1    1
    10     1     2   ar
    11     2     3   ar
    12     3    11    1
    13    11    12   ar
    14    12    13   ar
    15    13    14   ar
    16    14    15    1
    17    14    16   ar
    18     3     4   ar
    19     4     5   ar
    20     5     6   ar
    21     6     7   ar
    22     7     8   ar
    23     8     9   ar
    24     9    10   ar
    25    25    20    1
    26    10     1   ar
    27    16    11   ar
    28    10     5   ar
    29    23    26    1
@<TRIPOS>MOLECULE
*****
 26 29 0 0 0
SMALL
GASTEIGER

@<TRIPOS>ATOM
      1 C         142.5060  140.4597  166.3181 C.ar    1  UNL1        0.2446
      2 N         141.8592  141.4557  165.4018 N.ar    1  UNL1       -0.2102
      3 C         140.9580  142.5157  165.9624 C.ar    1  UNL1        0.0890
      4 C         140.7035  142.5797  167.4392 C.ar    1  UNL1        0.0401
      5 C         141.3502  141.5836  168.3556 C.ar    1  UNL1        0.1051
      6 N         141.0957  141.6475  169.8324 N.ar    1  UNL1       -0.2405
      7 C         141.7424  140.6515  170.7487 C.ar    1  UNL1        0.1195
      8 C         142.6437  139.5915  170.1881 C.ar    1  UNL1        0.1197
      9 N         142.8982  139.5275  168.7113 N.ar    1  UNL1       -0.2360
     10 C         142.2515  140.5236  167.7950 C.ar    1  UNL1        0.1519
     11 C         140.3113  143.5118  165.0460 C.ar    1  UNL1        0.0574
     12 C         138.9074  144.0285  165.1554 C.ar    1  UNL1        0.1231
     13 N         138.6833  145.0021  164.0364 N.ar    1  UNL1       -0.1675
     14 N         139.9489  145.0870  163.2356 N.ar    1  UNL1       -0.2473
     15 C         140.1695  145.9427  162.0236 C.3     1  UNL1        0.1538
     16 C         140.9550  144.1660  163.8596 C.ar    1  UNL1        0.0982
     17 O         143.4072  139.3997  165.7575 O.3     1  UNL1       -0.4577
     18 C         142.8439  138.0649  165.3690 C.3     1  UNL1        0.2243
     19 C         143.4360  138.2828  162.4361 C.3     1  UNL1        0.0898
     20 N         142.0236  138.0929  162.9039 N.3     1  UNL1       -0.2672
     21 C         140.9072  138.0118  161.9054 C.3     1  UNL1        0.0895
     22 C         139.4947  137.8219  162.3733 C.3     1  UNL1        0.0862
     23 N         139.1987  137.7129  163.8397 N.3     1  UNL1       -0.2951
     24 C         140.3151  137.7939  164.8383 C.3     1  UNL1        0.0886
     25 C         141.7275  137.9839  164.3704 C.3     1  UNL1        0.1176
     26 H         138.7415  136.8123  163.9817 H       1  UNL1        0.1233
@<TRIPOS>BOND
     1    19    20    1
     2    20    21    1
     3    21    22    1
     4    22    23    1
     5    23    24    1
     6    24    25    1
     7    25    18    1
     8    18    17    1
     9    17     1    1
    10     1     2   ar
    11     2     3   ar
    12     3    11    1
    13    11    12   ar
    14    12    13   ar
    15    13    14   ar
    16    14    15    1
    17    14    16   ar
    18     3     4   ar
    19     4     5   ar
    20     5     6   ar
    21     6     7   ar
    22     7     8   ar
    23     8     9   ar
    24     9    10   ar
    25    25    20    1
    26    10     1   ar
    27    16    11   ar
    28    10     5   ar
    29    23    26    1
@<TRIPOS>MOLECULE
*****
 26 29 0 0 0
SMALL
GASTEIGER

@<TRIPOS>ATOM
      1 C         140.9800  143.7763  164.3186 C.ar    1  UNL1        0.2446
      2 N         140.4210  143.0693  165.5175 N.ar    1  UNL1       -0.2102
      3 C         141.1780  141.9332  166.1389 C.ar    1  UNL1        0.0890
      4 C         142.4941  141.5041  165.5613 C.ar    1  UNL1        0.0401
      5 C         143.0532  142.2111  164.3623 C.ar    1  UNL1        0.1051
      6 N         144.3694  141.7820  163.7847 N.ar    1  UNL1       -0.2405
      7 C         144.9284  142.4890  162.5857 C.ar    1  UNL1        0.1195
      8 C         144.1714  143.6251  161.9644 C.ar    1  UNL1        0.1197
      9 N         142.8553  144.0543  162.5420 N.ar    1  UNL1       -0.2360
     10 C         142.2962  143.3472  163.7409 C.ar    1  UNL1        0.1519
     11 C         140.6189  141.2262  167.3379 C.ar    1  UNL1        0.0574
     12 C         139.4706  140.2610  167.3362 C.ar    1  UNL1        0.1231
     13 N         139.2519  139.7985  168.7464 N.ar    1  UNL1       -0.1675
     14 N         140.2650  140.4778  169.6194 N.ar    1  UNL1       -0.2473
     15 C         140.4082  140.3051  171.1025 C.3     1  UNL1        0.1538
     16 C         141.1098  141.3601  168.7489 C.ar    1  UNL1        0.0982
     17 O         140.2230  144.9125  163.6972 O.3     1  UNL1       -0.4577
     18 C         138.8148  144.7055  163.2239 C.3     1  UNL1        0.2243
     19 C         139.8701  143.7061  160.5995 C.3     1  UNL1        0.0898
     20 N         138.9150  142.8648  161.3931 N.3     1  UNL1       -0.2672
     21 C         138.4875  141.5238  160.8745 C.3     1  UNL1        0.0895
     22 C         137.5323  140.6824  161.6682 C.3     1  UNL1        0.0862
     23 N         137.0047  141.1821  162.9804 N.3     1  UNL1       -0.2951
     24 C         137.4322  142.5231  163.4989 C.3     1  UNL1        0.0886
     25 C         138.3873  143.3645  162.7053 C.3     1  UNL1        0.1176
     26 H         137.2711  140.4951  163.6857 H       1  UNL1        0.1233
@<TRIPOS>BOND
     1    19    20    1
     2    20    21    1
     3    21    22    1
     4    22    23    1
     5    23    24    1
     6    24    25    1
     7    25    18    1
     8    18    17    1
     9    17     1    1
    10     1     2   ar
    11     2     3   ar
    12     3    11    1
    13    11    12   ar
    14    12    13   ar
    15    13    14   ar
    16    14    15    1
    17    14    16   ar
    18     3     4   ar
    19     4     5   ar
    20     5     6   ar
    21     6     7   ar
    22     7     8   ar
    23     8     9   ar
    24     9    10   ar
    25    25    20    1
    26    10     1   ar
    27    16    11   ar
    28    10     5   ar
    29    23    26    1
