@<TRIPOS>MOLECULE
*****
 19 21 0 0 0
SMALL
GASTEIGER

@<TRIPOS>ATOM
      1 C         138.2984  139.3264  163.3958 C.3     1  UNL1        0.0313
      2 C         138.0348  138.6545  162.0809 C.3     1  UNL1        0.0222
      3 C         137.3442  139.6410  161.1866 C.3     1  UNL1        0.0689
      4 N         137.1810  140.9226  161.9488 N.3     1  UNL1       -0.2972
      5 C         137.7707  140.7282  163.3142 C.3     1  UNL1        0.0723
      6 H         136.1908  141.1538  162.0291 H       1  UNL1        0.1233
      7 C         138.6895  139.7226  164.7888 C.2     1  UNL1       -0.0390
      8 C         138.2631  138.8817  165.9554 C.2     1  UNL1       -0.0066
      9 C         138.6541  139.2780  167.3483 C.2     1  UNL1        0.0182
     10 C         139.4715  140.5151  167.5745 C.2     1  UNL1        0.0777
     11 N         140.0033  141.1522  168.8241 N.2     1  UNL1       -0.2442
     12 C         140.7583  142.3868  168.4297 C.2     1  UNL1        0.0985
     13 C         140.6932  142.5128  166.9364 C.2     1  UNL1        0.0182
     14 C         139.8979  141.3560  166.4078 C.2     1  UNL1        0.0011
     15 C         139.5069  140.9598  165.0150 C.3     1  UNL1        0.0499
     16 C         138.9079  138.0075  163.7688 C.3     1  UNL1        0.0051
     17 C         140.1214  137.5096  163.0411 C.3     1  UNL1        0.0004
     18 C         141.8241  137.9348  164.9570 C.3     1  UNL1        0.0000
     19 C         141.3406  137.0963  163.8111 C.3     1  UNL1        0.0000
@<TRIPOS>BOND
     1    18    19    1
     2    19    17    1
     3    17    16    1
     4    16     1    1
     5     1     7    1
     6     7     8    2
     7     8     9    1
     8     9    10    2
     9    10    11    1
    10    11    12    2
    11    12    13    1
    12    13    14    2
    13    14    15    1
    14     1     2    1
    15     2     3    1
    16     3     4    1
    17     4     5    1
    18     5     1    1
    19    15     7    1
    20    14    10    1
    21     4     6    1
@<TRIPOS>MOLECULE
*****
 19 21 0 0 0
SMALL
GASTEIGER

@<TRIPOS>ATOM
      1 C         140.7168  140.0452  168.4609 C.3     1  UNL1        0.0313
      2 C         141.2296  139.7046  169.8287 C.3     1  UNL1        0.0222
      3 C         142.5912  139.0945  169.6746 C.3     1  UNL1        0.0689
      4 N         142.9199  139.0580  168.2115 N.3     1  UNL1       -0.2972
      5 C         141.7615  139.6455  167.4614 C.3     1  UNL1        0.0723
      6 H         143.0714  138.0939  167.9147 H       1  UNL1        0.1233
      7 C         139.9521  140.4886  167.2490 C.2     1  UNL1       -0.0390
      8 C         138.9684  139.5598  166.6015 C.2     1  UNL1       -0.0066
      9 C         138.2037  140.0033  165.3895 C.2     1  UNL1        0.0182
     10 C         138.4230  141.3757  164.8252 C.2     1  UNL1        0.0777
     11 N         137.8195  142.0857  163.6497 N.2     1  UNL1       -0.2442
     12 C         138.4304  143.4534  163.5708 C.2     1  UNL1        0.0985
     13 C         139.4115  143.5886  164.6974 C.2     1  UNL1        0.0182
     14 C         139.4069  142.3045  165.4727 C.2     1  UNL1        0.0011
     15 C         140.1714  141.8610  166.6846 C.3     1  UNL1        0.0499
     16 C         139.5123  140.5375  169.2070 C.3     1  UNL1        0.0051
     17 C         139.6820  141.4381  170.3944 C.3     1  UNL1        0.0004
     18 C         141.2339  143.4715  169.9389 C.3     1  UNL1        0.0000
     19 C         139.8655  142.9137  170.1965 C.3     1  UNL1        0.0000
@<TRIPOS>BOND
     1    18    19    1
     2    19    17    1
     3    17    16    1
     4    16     1    1
     5     1     7    1
     6     7     8    2
     7     8     9    1
     8     9    10    2
     9    10    11    1
    10    11    12    2
    11    12    13    1
    12    13    14    2
    13    14    15    1
    14     1     2    1
    15     2     3    1
    16     3     4    1
    17     4     5    1
    18     5     1    1
    19    15     7    1
    20    14    10    1
    21     4     6    1
@<TRIPOS>MOLECULE
*****
 19 21 0 0 0
SMALL
GASTEIGER

@<TRIPOS>ATOM
      1 C         141.1970  140.0790  168.1046 C.3     1  UNL1        0.0313
      2 C         140.0026  140.1140  169.0113 C.3     1  UNL1        0.0222
      3 C         140.4772  139.8675  170.4128 C.3     1  UNL1        0.0689
      4 N         141.9649  139.6800  170.3722 N.3     1  UNL1       -0.2972
      5 C         142.4098  139.8108  168.9457 C.3     1  UNL1        0.0723
      6 H         142.2070  138.7548  170.7269 H       1  UNL1        0.1233
      7 C         142.1810  140.1010  166.9726 C.2     1  UNL1       -0.0390
      8 C         142.5799  138.8207  166.3006 C.2     1  UNL1       -0.0066
      9 C         143.5638  138.8427  165.1686 C.2     1  UNL1        0.0182
     10 C         144.1489  140.1451  164.7087 C.2     1  UNL1        0.0777
     11 N         145.1337  140.4766  163.6269 N.2     1  UNL1       -0.2442
     12 C         145.3434  141.9619  163.6304 C.2     1  UNL1        0.0985
     13 C         144.4883  142.5483  164.7143 C.2     1  UNL1        0.0182
     14 C         143.7500  141.4254  165.3807 C.2     1  UNL1        0.0011
     15 C         142.7661  141.4034  166.5127 C.3     1  UNL1        0.0499
     16 C         140.1901  140.3518  167.0269 C.3     1  UNL1        0.0051
     17 C         138.9246  139.5490  166.9623 C.3     1  UNL1        0.0004
     18 C         139.1021  137.7381  165.1077 C.3     1  UNL1        0.0000
     19 C         138.4630  138.9807  165.6531 C.3     1  UNL1        0.0000
@<TRIPOS>BOND
     1    18    19    1
     2    19    17    1
     3    17    16    1
     4    16     1    1
     5     1     7    1
     6     7     8    2
     7     8     9    1
     8     9    10    2
     9    10    11    1
    10    11    12    2
    11    12    13    1
    12    13    14    2
    13    14    15    1
    14     1     2    1
    15     2     3    1
    16     3     4    1
    17     4     5    1
    18     5     1    1
    19    15     7    1
    20    14    10    1
    21     4     6    1
@<TRIPOS>MOLECULE
*****
 19 21 0 0 0
SMALL
GASTEIGER

@<TRIPOS>ATOM
      1 C         138.0883  140.7254  163.7864 C.3     1  UNL1        0.0313
      2 C         137.5837  141.2850  162.4894 C.3     1  UNL1        0.0222
      3 C         137.6564  140.1995  161.4568 C.3     1  UNL1        0.0689
      4 N         138.2059  138.9690  162.1155 N.3     1  UNL1       -0.2972
      5 C         138.4728  139.2940  163.5553 C.3     1  UNL1        0.0723
      6 H         139.0731  138.6890  161.6573 H       1  UNL1        0.1233
      7 C         138.5319  140.4531  165.1932 C.2     1  UNL1       -0.0390
      8 C         137.9635  139.2872  165.9465 C.2     1  UNL1       -0.0066
      9 C         138.4071  139.0149  167.3534 C.2     1  UNL1        0.0182
     10 C         139.4192  139.9086  168.0068 C.2     1  UNL1        0.0777
     11 N         140.0429  139.8894  169.3709 N.2     1  UNL1       -0.2442
     12 C         140.9968  141.0435  169.4605 C.2     1  UNL1        0.0985
     13 C         140.9627  141.7759  168.1519 C.2     1  UNL1        0.0182
     14 C         139.9877  141.0745  167.2535 C.2     1  UNL1        0.0011
     15 C         139.5440  141.3467  165.8467 C.3     1  UNL1        0.0499
     16 C         137.7965  142.0998  164.3116 C.3     1  UNL1        0.0051
     17 C         137.8511  143.2820  163.3900 C.3     1  UNL1        0.0004
     18 C         138.6280  144.8007  165.3497 C.3     1  UNL1        0.0000
     19 C         138.3840  144.5942  163.8842 C.3     1  UNL1        0.0000
@<TRIPOS>BOND
     1    18    19    1
     2    19    17    1
     3    17    16    1
     4    16     1    1
     5     1     7    1
     6     7     8    2
     7     8     9    1
     8     9    10    2
     9    10    11    1
    10    11    12    2
    11    12    13    1
    12    13    14    2
    13    14    15    1
    14     1     2    1
    15     2     3    1
    16     3     4    1
    17     4     5    1
    18     5     1    1
    19    15     7    1
    20    14    10    1
    21     4     6    1
@<TRIPOS>MOLECULE
*****
 19 21 0 0 0
SMALL
GASTEIGER

@<TRIPOS>ATOM
      1 C         140.8553  140.1741  168.0261 C.3     1  UNL1        0.0313
      2 C         141.9816  139.8599  168.9656 C.3     1  UNL1        0.0222
      3 C         141.4036  139.6784  170.3378 C.3     1  UNL1        0.0689
      4 N         139.9201  139.8803  170.2464 N.3     1  UNL1       -0.2972
      5 C         139.5811  140.1867  168.8177 C.3     1  UNL1        0.0723
      6 H         139.6393  140.6583  170.8433 H       1  UNL1        0.1233
      7 C         139.9559  140.4999  166.8706 C.2     1  UNL1       -0.0390
      8 C         139.0142  139.4615  166.3371 C.2     1  UNL1       -0.0066
      9 C         138.1149  139.7873  165.1816 C.2     1  UNL1        0.0182
     10 C         138.1573  141.1516  164.5598 C.2     1  UNL1        0.0777
     11 N         137.3957  141.7588  163.4190 N.2     1  UNL1       -0.2442
     12 C         137.8668  143.1725  163.2475 C.2     1  UNL1        0.0985
     13 C         138.9194  143.4391  164.2823 C.2     1  UNL1        0.0182
     14 C         139.0990  142.1901  165.0933 C.2     1  UNL1        0.0011
     15 C         139.9983  141.8643  166.2488 C.3     1  UNL1        0.0499
     16 C         141.9412  140.2296  166.9930 C.3     1  UNL1        0.0051
     17 C         142.9543  139.1265  166.9098 C.3     1  UNL1        0.0004
     18 C         141.9306  137.9932  164.8079 C.3     1  UNL1        0.0000
     19 C         143.1292  138.3637  165.6301 C.3     1  UNL1        0.0000
@<TRIPOS>BOND
     1    18    19    1
     2    19    17    1
     3    17    16    1
     4    16     1    1
     5     1     7    1
     6     7     8    2
     7     8     9    1
     8     9    10    2
     9    10    11    1
    10    11    12    2
    11    12    13    1
    12    13    14    2
    13    14    15    1
    14     1     2    1
    15     2     3    1
    16     3     4    1
    17     4     5    1
    18     5     1    1
    19    15     7    1
    20    14    10    1
    21     4     6    1
@<TRIPOS>MOLECULE
*****
 19 21 0 0 0
SMALL
GASTEIGER

@<TRIPOS>ATOM
      1 C         140.5163  139.9668  167.6842 C.3     1  UNL1        0.0313
      2 C         141.4630  139.9737  168.8477 C.3     1  UNL1        0.0222
      3 C         140.6497  139.9286  170.1073 C.3     1  UNL1        0.0689
      4 N         139.2003  139.8939  169.7222 N.3     1  UNL1       -0.2972
      5 C         139.1179  139.9175  168.2247 C.3     1  UNL1        0.0723
      6 H         138.7201  140.7068  170.1082 H       1  UNL1        0.1233
      7 C         139.8320  139.9704  166.3494 C.2     1  UNL1       -0.0390
      8 C         139.2222  141.2354  165.8225 C.2     1  UNL1       -0.0066
      9 C         138.5379  141.2390  164.4877 C.2     1  UNL1        0.0182
     10 C         138.4635  139.9774  163.6797 C.2     1  UNL1        0.0777
     11 N         137.8584  139.6776  162.3403 N.2     1  UNL1       -0.2442
     12 C         138.0943  138.2271  162.0394 C.2     1  UNL1        0.0985
     13 C         138.8452  137.6305  163.1928 C.2     1  UNL1        0.0182
     14 C         139.0733  138.7123  164.2066 C.2     1  UNL1        0.0011
     15 C         139.7576  138.7088  165.5414 C.3     1  UNL1        0.0499
     16 C         141.7716  140.0168  166.8647 C.3     1  UNL1        0.0051
     17 C         142.9174  139.1056  167.1914 C.3     1  UNL1        0.0004
     18 C         143.4132  138.7658  164.6638 C.3     1  UNL1        0.0000
     19 C         143.6246  138.3667  166.0942 C.3     1  UNL1        0.0000
@<TRIPOS>BOND
     1    18    19    1
     2    19    17    1
     3    17    16    1
     4    16     1    1
     5     1     7    1
     6     7     8    2
     7     8     9    1
     8     9    10    2
     9    10    11    1
    10    11    12    2
    11    12    13    1
    12    13    14    2
    13    14    15    1
    14     1     2    1
    15     2     3    1
    16     3     4    1
    17     4     5    1
    18     5     1    1
    19    15     7    1
    20    14    10    1
    21     4     6    1
@<TRIPOS>MOLECULE
*****
 19 21 0 0 0
SMALL
GASTEIGER

@<TRIPOS>ATOM
      1 C         139.5312  140.7960  166.5476 C.3     1  UNL1        0.0313
      2 C         139.1580  139.7018  167.5033 C.3     1  UNL1        0.0222
      3 C         138.0844  138.8730  166.8626 C.3     1  UNL1        0.0689
      4 N         137.7941  139.4551  165.5109 N.3     1  UNL1       -0.2972
      5 C         138.6883  140.6435  165.3162 C.3     1  UNL1        0.0723
      6 H         136.8174  139.7450  165.4613 H       1  UNL1        0.1233
      7 C         140.1058  141.9736  165.8173 C.2     1  UNL1       -0.0390
      8 C         139.1937  143.0046  165.2217 C.2     1  UNL1       -0.0066
      9 C         139.7683  144.1822  164.4914 C.2     1  UNL1        0.0182
     10 C         141.2551  144.3286  164.3569 C.2     1  UNL1        0.0777
     11 N         142.1051  145.3743  163.6980 N.2     1  UNL1       -0.2442
     12 C         143.5425  144.9894  163.8865 C.2     1  UNL1        0.0985
     13 C         143.5810  143.7059  164.6619 C.2     1  UNL1        0.0182
     14 C         142.1672  143.2976  164.9527 C.2     1  UNL1        0.0011
     15 C         141.5926  142.1200  165.6829 C.3     1  UNL1        0.0499
     16 C         140.4943  141.1947  167.6262 C.3     1  UNL1        0.0051
     17 C         140.1089  141.0459  169.0682 C.3     1  UNL1        0.0004
     18 C         140.5036  143.5851  169.4521 C.3     1  UNL1        0.0000
     19 C         140.0117  142.2574  169.9474 C.3     1  UNL1        0.0000
@<TRIPOS>BOND
     1    18    19    1
     2    19    17    1
     3    17    16    1
     4    16     1    1
     5     1     7    1
     6     7     8    2
     7     8     9    1
     8     9    10    2
     9    10    11    1
    10    11    12    2
    11    12    13    1
    12    13    14    2
    13    14    15    1
    14     1     2    1
    15     2     3    1
    16     3     4    1
    17     4     5    1
    18     5     1    1
    19    15     7    1
    20    14    10    1
    21     4     6    1
@<TRIPOS>MOLECULE
*****
 19 21 0 0 0
SMALL
GASTEIGER

@<TRIPOS>ATOM
      1 C         142.0496  143.1040  165.0483 C.3     1  UNL1        0.0313
      2 C         142.5841  144.0805  164.0430 C.3     1  UNL1        0.0222
      3 C         144.0510  144.2564  164.3022 C.3     1  UNL1        0.0689
      4 N         144.4231  143.3885  165.4677 N.3     1  UNL1       -0.2972
      5 C         143.1862  142.6763  165.9288 C.3     1  UNL1        0.0723
      6 H         144.7932  143.9644  166.2239 H       1  UNL1        0.1233
      7 C         141.2422  142.1762  165.9072 C.2     1  UNL1       -0.0390
      8 C         140.6174  140.9518  165.3071 C.2     1  UNL1       -0.0066
      9 C         139.8101  140.0240  166.1659 C.2     1  UNL1        0.0182
     10 C         139.6276  140.3209  167.6249 C.2     1  UNL1        0.0777
     11 N         138.8910  139.5960  168.7121 N.2     1  UNL1       -0.2442
     12 C         139.0606  140.3726  169.9842 C.2     1  UNL1        0.0985
     13 C         139.9020  141.5774  169.6831 C.2     1  UNL1        0.0182
     14 C         140.2524  141.5454  168.2250 C.2     1  UNL1        0.0011
     15 C         141.0598  142.4731  167.3661 C.3     1  UNL1        0.0499
     16 C         140.7442  143.3376  164.3475 C.3     1  UNL1        0.0051
     17 C         139.9766  144.6026  164.5939 C.3     1  UNL1        0.0004
     18 C         137.7527  143.2596  164.5622 C.3     1  UNL1        0.0000
     19 C         138.4819  144.5618  164.7129 C.3     1  UNL1        0.0000
@<TRIPOS>BOND
     1    18    19    1
     2    19    17    1
     3    17    16    1
     4    16     1    1
     5     1     7    1
     6     7     8    2
     7     8     9    1
     8     9    10    2
     9    10    11    1
    10    11    12    2
    11    12    13    1
    12    13    14    2
    13    14    15    1
    14     1     2    1
    15     2     3    1
    16     3     4    1
    17     4     5    1
    18     5     1    1
    19    15     7    1
    20    14    10    1
    21     4     6    1
@<TRIPOS>MOLECULE
*****
 19 21 0 0 0
SMALL
GASTEIGER

@<TRIPOS>ATOM
      1 C         139.8612  144.2510  164.1361 C.3     1  UNL1        0.0313
      2 C         138.8510  144.8129  163.1802 C.3     1  UNL1        0.0222
      3 C         139.5500  145.8027  162.2961 C.3     1  UNL1        0.0689
      4 N         140.9922  145.8525  162.7056 N.3     1  UNL1       -0.2972
      5 C         141.1846  144.8935  163.8428 C.3     1  UNL1        0.0723
      6 H         141.2347  146.7971  163.0046 H       1  UNL1        0.1233
      7 C         140.6283  143.5229  165.1999 C.2     1  UNL1       -0.0390
      8 C         142.0270  143.0544  164.9281 C.2     1  UNL1       -0.0066
      9 C         142.7942  142.3263  165.9919 C.2     1  UNL1        0.0182
     10 C         142.1624  142.0669  167.3274 C.2     1  UNL1        0.0777
     11 N         142.6690  141.3799  168.5609 N.2     1  UNL1       -0.2442
     12 C         141.5833  141.4239  169.5949 C.2     1  UNL1        0.0985
     13 C         140.4057  142.1381  169.0006 C.2     1  UNL1        0.0182
     14 C         140.7637  142.5355  167.5992 C.2     1  UNL1        0.0011
     15 C         139.9966  143.2635  166.5354 C.3     1  UNL1        0.0499
     16 C         138.6983  143.4563  164.6519 C.3     1  UNL1        0.0051
     17 C         137.7990  142.7343  163.6927 C.3     1  UNL1        0.0004
     18 C         138.2014  140.4479  164.8592 C.3     1  UNL1        0.0000
     19 C         137.8003  141.2351  163.6469 C.3     1  UNL1        0.0000
@<TRIPOS>BOND
     1    18    19    1
     2    19    17    1
     3    17    16    1
     4    16     1    1
     5     1     7    1
     6     7     8    2
     7     8     9    1
     8     9    10    2
     9    10    11    1
    10    11    12    2
    11    12    13    1
    12    13    14    2
    13    14    15    1
    14     1     2    1
    15     2     3    1
    16     3     4    1
    17     4     5    1
    18     5     1    1
    19    15     7    1
    20    14    10    1
    21     4     6    1
