@<TRIPOS>MOLECULE
*****
 34 38 0 0 0
SMALL
GASTEIGER

@<TRIPOS>ATOM
      1 N         142.9486  139.1501  162.9033 N.3     1  UNL1       -0.2712
      2 C         144.1824  139.9063  162.5084 C.3     1  UNL1        0.0738
      3 C         144.3835  141.0148  163.4988 C.3     1  UNL1        0.0372
      4 C         145.2703  142.1672  163.8668 C.3     1  UNL1        0.0245
      5 C         144.7088  142.8084  165.1012 C.3     1  UNL1        0.0909
      6 N         143.4749  142.0522  165.4960 N.pl3   1  UNL1       -0.3077
      7 C         143.2739  140.9437  164.5057 C.3     1  UNL1        0.0901
      8 C         142.3871  139.7913  164.1376 C.3     1  UNL1        0.0921
      9 C         142.5964  142.3519  166.6743 C.ar    1  UNL1        0.0478
     10 C         141.1389  142.6404  166.4690 C.ar    1  UNL1        0.0145
     11 C         140.2603  142.9401  167.6473 C.ar    1  UNL1        0.0051
     12 C         140.8394  142.9513  169.0309 C.ar    1  UNL1        0.0715
     13 C         142.2970  142.6628  169.2363 C.ar    1  UNL1        0.0051
     14 C         143.1755  142.3631  168.0580 C.ar    1  UNL1        0.0145
     15 C         139.9609  143.2510  170.2092 C.3     1  UNL1        0.4186
     16 F         139.0823  143.5507  171.3875 F       1  UNL1       -0.1659
     17 F         139.4537  141.8395  170.1901 F       1  UNL1       -0.1659
     18 F         140.4680  144.6626  170.2283 F       1  UNL1       -0.1659
     19 C         142.3767  137.9614  162.1891 C.3     1  UNL1        0.0731
     20 C         141.1436  137.2907  162.7178 C.3     1  UNL1        0.0294
     21 C         139.8021  137.6174  162.1316 C.3     1  UNL1        0.0666
     22 S         138.7040  138.1339  163.0132 S.3     1  UNL1       -0.0756
     23 C         139.7973  140.6587  161.2583 C.3     1  UNL1        0.1340
     24 N         139.2007  140.7326  162.6326 N.ar    1  UNL1       -0.2884
     25 C         138.6982  139.5721  163.4392 C.ar    1  UNL1        0.1932
     26 N         138.1888  140.1023  164.7467 N.ar    1  UNL1       -0.1221
     27 N         138.3765  141.5905  164.7481 N.ar    1  UNL1       -0.1282
     28 C         139.0019  141.9801  163.4415 C.ar    1  UNL1        0.1683
     29 C         139.3648  143.3727  163.0183 C.ar    1  UNL1        0.0551
     30 C         140.7882  143.8372  163.1088 C.ar    1  UNL1        0.0062
     31 C         141.1511  145.2297  162.6855 C.ar    1  UNL1        0.0208
     32 C         140.0904  146.1577  162.1717 C.ar    1  UNL1        0.0989
     33 N         138.6671  145.6932  162.0812 N.ar    1  UNL1       -0.2422
     34 C         138.3043  144.3007  162.5045 C.ar    1  UNL1        0.1019
@<TRIPOS>BOND
     1    23    24    1
     2    24    25   ar
     3    25    22    1
     4    22    21    1
     5    21    20    1
     6    20    19    1
     7    19     1    1
     8     1     2    1
     9     2     3    1
    10     3     4    1
    11     4     5    1
    12     5     6    1
    13     6     9    1
    14     9    10   ar
    15    10    11   ar
    16    11    12   ar
    17    12    15    1
    18    15    16    1
    19    15    17    1
    20    15    18    1
    21    12    13   ar
    22    13    14   ar
    23     6     7    1
    24     7     8    1
    25    25    26   ar
    26    26    27   ar
    27    27    28   ar
    28    28    29    1
    29    29    30   ar
    30    30    31   ar
    31    31    32   ar
    32    32    33   ar
    33    33    34   ar
    34    28    24   ar
    35    34    29   ar
    36     8     1    1
    37     7     3    1
    38    14     9   ar
@<TRIPOS>MOLECULE
*****
 34 38 0 0 0
SMALL
GASTEIGER

@<TRIPOS>ATOM
      1 N         140.5608  144.9162  161.5485 N.3     1  UNL1       -0.2712
      2 C         139.5468  145.6234  162.3979 C.3     1  UNL1        0.0738
      3 C         139.4905  144.9297  163.7266 C.3     1  UNL1        0.0372
      4 C         138.8289  144.9380  165.0728 C.3     1  UNL1        0.0245
      5 C         139.3992  143.8072  165.8767 C.3     1  UNL1        0.0909
      6 N         140.4133  143.0999  165.0271 N.pl3   1  UNL1       -0.3077
      7 C         140.4696  143.7937  163.6984 C.3     1  UNL1        0.0901
      8 C         141.1312  143.7854  162.3522 C.3     1  UNL1        0.0921
      9 C         141.2279  141.9082  165.4348 C.ar    1  UNL1        0.0478
     10 C         142.2582  141.3485  164.4993 C.ar    1  UNL1        0.0145
     11 C         143.0728  140.1568  164.9070 C.ar    1  UNL1        0.0051
     12 C         142.8572  139.5248  166.2502 C.ar    1  UNL1        0.0715
     13 C         141.8269  140.0846  167.1857 C.ar    1  UNL1        0.0051
     14 C         141.0123  141.2763  166.7781 C.ar    1  UNL1        0.0145
     15 C         143.6719  138.3331  166.6579 C.3     1  UNL1        0.4186
     16 F         144.4865  137.1414  167.0655 F       1  UNL1       -0.1659
     17 F         144.2395  138.2471  165.2721 F       1  UNL1       -0.1659
     18 F         143.1043  138.4192  168.0436 F       1  UNL1       -0.1659
     19 C         140.9383  145.2765  160.1421 C.3     1  UNL1        0.0731
     20 C         141.0080  144.2116  159.0881 C.3     1  UNL1        0.0294
     21 C         139.7745  143.8298  158.3247 C.3     1  UNL1        0.0666
     22 S         139.0925  142.5238  158.6063 S.3     1  UNL1       -0.0756
     23 C         139.9678  139.8853  160.3157 C.3     1  UNL1        0.1340
     24 N         139.0566  140.9794  160.7877 N.ar    1  UNL1       -0.2884
     25 C         138.6543  142.1922  160.0020 C.ar    1  UNL1        0.1932
     26 N         137.7369  143.0152  160.8570 N.ar    1  UNL1       -0.1221
     27 N         137.5722  142.3110  162.1712 N.ar    1  UNL1       -0.1282
     28 C         138.3878  141.0528  162.1284 C.ar    1  UNL1        0.1683
     29 C         138.5127  140.0451  163.2324 C.ar    1  UNL1        0.0551
     30 C         138.0613  140.3928  164.6200 C.ar    1  UNL1        0.0062
     31 C         138.1862  139.3851  165.7240 C.ar    1  UNL1        0.0208
     32 C         138.7625  138.0295  165.4403 C.ar    1  UNL1        0.0989
     33 N         139.2139  137.6817  164.0528 N.ar    1  UNL1       -0.2422
     34 C         139.0890  138.6896  162.9488 C.ar    1  UNL1        0.1019
@<TRIPOS>BOND
     1    23    24    1
     2    24    25   ar
     3    25    22    1
     4    22    21    1
     5    21    20    1
     6    20    19    1
     7    19     1    1
     8     1     2    1
     9     2     3    1
    10     3     4    1
    11     4     5    1
    12     5     6    1
    13     6     9    1
    14     9    10   ar
    15    10    11   ar
    16    11    12   ar
    17    12    15    1
    18    15    16    1
    19    15    17    1
    20    15    18    1
    21    12    13   ar
    22    13    14   ar
    23     6     7    1
    24     7     8    1
    25    25    26   ar
    26    26    27   ar
    27    27    28   ar
    28    28    29    1
    29    29    30   ar
    30    30    31   ar
    31    31    32   ar
    32    32    33   ar
    33    33    34   ar
    34    28    24   ar
    35    34    29   ar
    36     8     1    1
    37     7     3    1
    38    14     9   ar
@<TRIPOS>MOLECULE
*****
 34 38 0 0 0
SMALL
GASTEIGER

@<TRIPOS>ATOM
      1 N         142.5872  138.0802  162.7021 N.3     1  UNL1       -0.2712
      2 C         141.2092  137.4880  162.6810 C.3     1  UNL1        0.0738
      3 C         140.4803  137.9666  163.9015 C.3     1  UNL1        0.0372
      4 C         139.1782  137.8964  164.6428 C.3     1  UNL1        0.0245
      5 C         139.3009  138.7410  165.8764 C.3     1  UNL1        0.0909
      6 N         140.6790  139.3332  165.8974 N.pl3   1  UNL1       -0.3077
      7 C         141.4078  138.8546  164.6769 C.3     1  UNL1        0.0901
      8 C         142.7100  138.9248  163.9356 C.3     1  UNL1        0.0921
      9 C         141.2311  140.2440  166.9536 C.ar    1  UNL1        0.0478
     10 C         140.6905  141.6354  167.1014 C.ar    1  UNL1        0.0145
     11 C         141.2427  142.5462  168.1576 C.ar    1  UNL1        0.0051
     12 C         142.3354  142.0658  169.0659 C.ar    1  UNL1        0.0715
     13 C         142.8760  140.6744  168.9180 C.ar    1  UNL1        0.0051
     14 C         142.3239  139.7635  167.8619 C.ar    1  UNL1        0.0145
     15 C         142.8875  142.9766  170.1220 C.3     1  UNL1        0.4186
     16 F         143.4397  143.8875  171.1782 F       1  UNL1       -0.1659
     17 F         141.5978  143.7423  170.1359 F       1  UNL1       -0.1659
     18 F         144.1773  142.2109  170.1081 F       1  UNL1       -0.1659
     19 C         143.6550  137.8655  161.6707 C.3     1  UNL1        0.0731
     20 C         143.5814  138.5815  160.3547 C.3     1  UNL1        0.0294
     21 C         142.6791  138.0691  159.2714 C.3     1  UNL1        0.0666
     22 S         141.5686  138.9320  158.7498 S.3     1  UNL1       -0.0756
     23 C         141.4922  141.6902  160.4921 C.3     1  UNL1        0.1340
     24 N         140.4276  140.6338  160.4665 N.ar    1  UNL1       -0.2884
     25 C         140.4627  139.3660  159.6656 C.ar    1  UNL1        0.1932
     26 N         139.1978  138.6084  159.9413 N.ar    1  UNL1       -0.1221
     27 N         138.3809  139.4080  160.9126 N.ar    1  UNL1       -0.1282
     28 C         139.1410  140.6598  161.2372 C.ar    1  UNL1        0.1683
     29 C         138.6930  141.7467  162.1689 C.ar    1  UNL1        0.0551
     30 C         138.6676  141.5028  163.6487 C.ar    1  UNL1        0.0062
     31 C         138.2197  142.5897  164.5804 C.ar    1  UNL1        0.0208
     32 C         137.7972  143.9206  164.0321 C.ar    1  UNL1        0.0989
     33 N         137.8226  144.1644  162.5523 N.ar    1  UNL1       -0.2422
     34 C         138.2706  143.0775  161.6207 C.ar    1  UNL1        0.1019
@<TRIPOS>BOND
     1    23    24    1
     2    24    25   ar
     3    25    22    1
     4    22    21    1
     5    21    20    1
     6    20    19    1
     7    19     1    1
     8     1     2    1
     9     2     3    1
    10     3     4    1
    11     4     5    1
    12     5     6    1
    13     6     9    1
    14     9    10   ar
    15    10    11   ar
    16    11    12   ar
    17    12    15    1
    18    15    16    1
    19    15    17    1
    20    15    18    1
    21    12    13   ar
    22    13    14   ar
    23     6     7    1
    24     7     8    1
    25    25    26   ar
    26    26    27   ar
    27    27    28   ar
    28    28    29    1
    29    29    30   ar
    30    30    31   ar
    31    31    32   ar
    32    32    33   ar
    33    33    34   ar
    34    28    24   ar
    35    34    29   ar
    36     8     1    1
    37     7     3    1
    38    14     9   ar
@<TRIPOS>MOLECULE
*****
 34 38 0 0 0
SMALL
GASTEIGER

@<TRIPOS>ATOM
      1 N         141.0391  143.5078  159.9747 N.3     1  UNL1       -0.2712
      2 C         141.4067  144.7679  160.7007 C.3     1  UNL1        0.0738
      3 C         141.1209  144.5627  162.1589 C.3     1  UNL1        0.0372
      4 C         141.1715  145.2147  163.5088 C.3     1  UNL1        0.0245
      5 C         140.6586  144.2309  164.5184 C.3     1  UNL1        0.0909
      6 N         140.2910  142.9708  163.7922 N.pl3   1  UNL1       -0.3077
      7 C         140.5767  143.1759  162.3341 C.3     1  UNL1        0.0901
      8 C         140.5261  142.5240  160.9841 C.3     1  UNL1        0.0921
      9 C         139.7352  141.7245  164.4150 C.ar    1  UNL1        0.0478
     10 C         138.9944  140.7303  163.5707 C.ar    1  UNL1        0.0145
     11 C         138.4386  139.4840  164.1935 C.ar    1  UNL1        0.0051
     12 C         138.6237  139.2319  165.6605 C.ar    1  UNL1        0.0715
     13 C         139.3645  140.2260  166.5048 C.ar    1  UNL1        0.0051
     14 C         139.9203  141.4724  165.8821 C.ar    1  UNL1        0.0145
     15 C         138.0679  137.9856  166.2833 C.3     1  UNL1        0.4186
     16 F         137.5121  136.7392  166.9060 F       1  UNL1       -0.1659
     17 F         138.7112  137.1613  165.2077 F       1  UNL1       -0.1659
     18 F         137.4246  138.8098  167.3588 F       1  UNL1       -0.1659
     19 C         141.1627  143.2729  158.4984 C.3     1  UNL1        0.0731
     20 C         142.3883  143.7324  157.7658 C.3     1  UNL1        0.0294
     21 C         143.4387  142.7397  157.3644 C.3     1  UNL1        0.0666
     22 S         144.4736  142.3001  158.3571 S.3     1  UNL1       -0.0756
     23 C         144.1398  142.3923  161.6021 C.3     1  UNL1        0.1340
     24 N         144.0517  141.1671  160.7411 N.ar    1  UNL1       -0.2884
     25 C         144.2051  141.1247  159.2496 C.ar    1  UNL1        0.1932
     26 N         144.0430  139.7006  158.8072 N.ar    1  UNL1       -0.1221
     27 N         143.7893  138.8629  160.0253 N.ar    1  UNL1       -0.1282
     28 C         143.7947  139.7692  161.2206 C.ar    1  UNL1        0.1683
     29 C         143.5807  139.3510  162.6451 C.ar    1  UNL1        0.0551
     30 C         142.2421  138.8340  163.0820 C.ar    1  UNL1        0.0062
     31 C         142.0281  138.4158  164.5066 C.ar    1  UNL1        0.0208
     32 C         143.1528  138.5146  165.4942 C.ar    1  UNL1        0.0989
     33 N         144.4914  139.0316  165.0573 N.ar    1  UNL1       -0.2422
     34 C         144.7053  139.4498  163.6327 C.ar    1  UNL1        0.1019
@<TRIPOS>BOND
     1    23    24    1
     2    24    25   ar
     3    25    22    1
     4    22    21    1
     5    21    20    1
     6    20    19    1
     7    19     1    1
     8     1     2    1
     9     2     3    1
    10     3     4    1
    11     4     5    1
    12     5     6    1
    13     6     9    1
    14     9    10   ar
    15    10    11   ar
    16    11    12   ar
    17    12    15    1
    18    15    16    1
    19    15    17    1
    20    15    18    1
    21    12    13   ar
    22    13    14   ar
    23     6     7    1
    24     7     8    1
    25    25    26   ar
    26    26    27   ar
    27    27    28   ar
    28    28    29    1
    29    29    30   ar
    30    30    31   ar
    31    31    32   ar
    32    32    33   ar
    33    33    34   ar
    34    28    24   ar
    35    34    29   ar
    36     8     1    1
    37     7     3    1
    38    14     9   ar
@<TRIPOS>MOLECULE
*****
 34 38 0 0 0
SMALL
GASTEIGER

@<TRIPOS>ATOM
      1 N         142.1966  138.2580  162.4436 N.3     1  UNL1       -0.2712
      2 C         140.8639  137.5712  162.4911 C.3     1  UNL1        0.0738
      3 C         140.1823  137.9700  163.7664 C.3     1  UNL1        0.0372
      4 C         138.9373  137.7920  164.5839 C.3     1  UNL1        0.0245
      5 C         139.0792  138.6152  165.8298 C.3     1  UNL1        0.0909
      6 N         140.4119  139.3020  165.7823 N.pl3   1  UNL1       -0.3077
      7 C         141.0936  138.9032  164.5070 C.3     1  UNL1        0.0901
      8 C         142.3386  139.0812  163.6895 C.3     1  UNL1        0.0921
      9 C         140.9657  140.2254  166.8266 C.ar    1  UNL1        0.0478
     10 C         140.0617  140.7956  167.8790 C.ar    1  UNL1        0.0145
     11 C         140.6155  141.7190  168.9234 C.ar    1  UNL1        0.0051
     12 C         142.0732  142.0722  168.9153 C.ar    1  UNL1        0.0715
     13 C         142.9773  141.5020  167.8628 C.ar    1  UNL1        0.0051
     14 C         142.4235  140.5786  166.8185 C.ar    1  UNL1        0.0145
     15 C         142.6270  142.9956  169.9597 C.3     1  UNL1        0.4186
     16 F         143.1807  143.9191  171.0040 F       1  UNL1       -0.1659
     17 F         141.3126  143.7160  170.0196 F       1  UNL1       -0.1659
     18 F         143.9413  142.2753  169.8997 F       1  UNL1       -0.1659
     19 C         143.2096  138.1419  161.3434 C.3     1  UNL1        0.0731
     20 C         143.9612  139.3563  160.8848 C.3     1  UNL1        0.0294
     21 C         143.8482  139.8152  159.4612 C.3     1  UNL1        0.0666
     22 S         143.0878  141.0662  159.1346 S.3     1  UNL1       -0.0756
     23 C         140.5198  141.1209  161.1476 C.3     1  UNL1        0.1340
     24 N         141.6465  142.1110  161.1287 N.ar    1  UNL1       -0.2884
     25 C         142.8269  142.0858  160.2034 C.ar    1  UNL1        0.1932
     26 N         143.7006  143.2593  160.5346 N.ar    1  UNL1       -0.1221
     27 N         143.0602  144.0097  161.6645 N.ar    1  UNL1       -0.1282
     28 C         141.7907  143.3000  162.0318 C.ar    1  UNL1        0.1683
     29 C         140.8335  143.7078  163.1123 C.ar    1  UNL1        0.0551
     30 C         141.0486  143.2391  164.5208 C.ar    1  UNL1        0.0062
     31 C         140.0914  143.6469  165.6014 C.ar    1  UNL1        0.0208
     32 C         138.9191  144.5234  165.2732 C.ar    1  UNL1        0.0989
     33 N         138.7040  144.9921  163.8646 N.ar    1  UNL1       -0.2422
     34 C         139.6613  144.5843  162.7842 C.ar    1  UNL1        0.1019
@<TRIPOS>BOND
     1    23    24    1
     2    24    25   ar
     3    25    22    1
     4    22    21    1
     5    21    20    1
     6    20    19    1
     7    19     1    1
     8     1     2    1
     9     2     3    1
    10     3     4    1
    11     4     5    1
    12     5     6    1
    13     6     9    1
    14     9    10   ar
    15    10    11   ar
    16    11    12   ar
    17    12    15    1
    18    15    16    1
    19    15    17    1
    20    15    18    1
    21    12    13   ar
    22    13    14   ar
    23     6     7    1
    24     7     8    1
    25    25    26   ar
    26    26    27   ar
    27    27    28   ar
    28    28    29    1
    29    29    30   ar
    30    30    31   ar
    31    31    32   ar
    32    32    33   ar
    33    33    34   ar
    34    28    24   ar
    35    34    29   ar
    36     8     1    1
    37     7     3    1
    38    14     9   ar
@<TRIPOS>MOLECULE
*****
 34 38 0 0 0
SMALL
GASTEIGER

@<TRIPOS>ATOM
      1 N         142.3100  142.2050  160.2618 N.3     1  UNL1       -0.2712
      2 C         143.4396  141.2812  159.9147 C.3     1  UNL1        0.0738
      3 C         143.3303  140.0667  160.7882 C.3     1  UNL1        0.0372
      4 C         143.9609  138.7452  161.1136 C.3     1  UNL1        0.0245
      5 C         143.1534  138.1016  162.2017 C.3     1  UNL1        0.0909
      6 N         142.0238  139.0255  162.5488 N.pl3   1  UNL1       -0.3077
      7 C         142.1331  140.2399  161.6752 C.3     1  UNL1        0.0901
      8 C         141.5025  141.5615  161.3499 C.3     1  UNL1        0.0921
      9 C         140.9699  138.7782  163.5871 C.ar    1  UNL1        0.0478
     10 C         139.8431  137.8304  163.3012 C.ar    1  UNL1        0.0145
     11 C         138.7892  137.5831  164.3395 C.ar    1  UNL1        0.0051
     12 C         138.8621  138.2837  165.6638 C.ar    1  UNL1        0.0715
     13 C         139.9889  139.2316  165.9498 C.ar    1  UNL1        0.0051
     14 C         141.0428  139.4789  164.9115 C.ar    1  UNL1        0.0145
     15 C         137.8082  138.0364  166.7022 C.3     1  UNL1        0.4186
     16 F         136.7543  137.7892  167.7405 F       1  UNL1       -0.1659
     17 F         137.8321  139.4898  167.0725 F       1  UNL1       -0.1659
     18 F         137.7843  136.5831  166.3318 F       1  UNL1       -0.1659
     19 C         142.0359  143.5383  159.6316 C.3     1  UNL1        0.0731
     20 C         140.6882  144.1784  159.7867 C.3     1  UNL1        0.0294
     21 C         140.5829  145.6046  160.2392 C.3     1  UNL1        0.0666
     22 S         139.8540  145.9372  161.5073 S.3     1  UNL1       -0.0756
     23 C         142.1447  145.3890  163.7660 C.3     1  UNL1        0.1340
     24 N         140.8297  144.6763  163.6528 N.ar    1  UNL1       -0.2884
     25 C         139.7767  144.9283  162.6146 C.ar    1  UNL1        0.1932
     26 N         138.6330  143.9942  162.8780 N.ar    1  UNL1       -0.1221
     27 N         138.9790  143.1649  164.0791 N.ar    1  UNL1       -0.1282
     28 C         140.3367  143.5865  164.5580 C.ar    1  UNL1        0.1683
     29 C         141.0721  143.0180  165.7352 C.ar    1  UNL1        0.0551
     30 C         140.3587  142.8164  167.0392 C.ar    1  UNL1        0.0062
     31 C         141.0941  142.2479  168.2165 C.ar    1  UNL1        0.0208
     32 C         142.5431  141.8810  168.0896 C.ar    1  UNL1        0.0989
     33 N         143.2565  142.0825  166.7857 N.ar    1  UNL1       -0.2422
     34 C         142.5210  142.6511  165.6084 C.ar    1  UNL1        0.1019
@<TRIPOS>BOND
     1    23    24    1
     2    24    25   ar
     3    25    22    1
     4    22    21    1
     5    21    20    1
     6    20    19    1
     7    19     1    1
     8     1     2    1
     9     2     3    1
    10     3     4    1
    11     4     5    1
    12     5     6    1
    13     6     9    1
    14     9    10   ar
    15    10    11   ar
    16    11    12   ar
    17    12    15    1
    18    15    16    1
    19    15    17    1
    20    15    18    1
    21    12    13   ar
    22    13    14   ar
    23     6     7    1
    24     7     8    1
    25    25    26   ar
    26    26    27   ar
    27    27    28   ar
    28    28    29    1
    29    29    30   ar
    30    30    31   ar
    31    31    32   ar
    32    32    33   ar
    33    33    34   ar
    34    28    24   ar
    35    34    29   ar
    36     8     1    1
    37     7     3    1
    38    14     9   ar
@<TRIPOS>MOLECULE
*****
 34 38 0 0 0
SMALL
GASTEIGER

@<TRIPOS>ATOM
      1 N         140.4806  141.9716  160.7615 N.3     1  UNL1       -0.2712
      2 C         139.5648  143.1575  160.6899 C.3     1  UNL1        0.0738
      3 C         139.4812  143.7619  162.0602 C.3     1  UNL1        0.0372
      4 C         138.8636  144.8683  162.8628 C.3     1  UNL1        0.0245
      5 C         139.3459  144.7399  164.2774 C.3     1  UNL1        0.0909
      6 N         140.2617  143.5540  164.3489 N.pl3   1  UNL1       -0.3077
      7 C         140.3453  142.9496  162.9786 C.3     1  UNL1        0.0901
      8 C         140.9630  141.8431  162.1760 C.3     1  UNL1        0.0921
      9 C         140.9696  143.0594  165.5754 C.ar    1  UNL1        0.0478
     10 C         140.2498  143.0162  166.8907 C.ar    1  UNL1        0.0145
     11 C         140.9576  142.5216  168.1172 C.ar    1  UNL1        0.0051
     12 C         142.3853  142.0702  168.0284 C.ar    1  UNL1        0.0715
     13 C         143.1052  142.1134  166.7131 C.ar    1  UNL1        0.0051
     14 C         142.3973  142.6080  165.4866 C.ar    1  UNL1        0.0145
     15 C         143.0932  141.5757  169.2549 C.3     1  UNL1        0.4186
     16 F         143.8011  141.0811  170.4814 F       1  UNL1       -0.1659
     17 F         144.1678  142.6016  169.0484 F       1  UNL1       -0.1659
     18 F         142.0186  140.5497  169.4614 F       1  UNL1       -0.1659
     19 C         140.8493  141.0721  159.6191 C.3     1  UNL1        0.0731
     20 C         142.2347  140.5041  159.5287 C.3     1  UNL1        0.0294
     21 C         142.4499  139.1424  158.9375 C.3     1  UNL1        0.0666
     22 S         142.4114  137.9282  159.8174 S.3     1  UNL1       -0.0756
     23 C         139.5415  138.0434  161.3665 C.3     1  UNL1        0.1340
     24 N         140.8942  138.1328  162.0085 N.ar    1  UNL1       -0.2884
     25 C         142.2134  138.0799  161.2965 C.ar    1  UNL1        0.1932
     26 N         143.2997  138.2052  162.3232 N.ar    1  UNL1       -0.1221
     27 N         142.6519  138.3356  163.6698 N.ar    1  UNL1       -0.1282
     28 C         141.1652  138.2909  163.4754 C.ar    1  UNL1        0.1683
     29 C         140.1311  138.3873  164.5577 C.ar    1  UNL1        0.0551
     30 C         140.0507  139.6186  165.4106 C.ar    1  UNL1        0.0062
     31 C         139.0166  139.7150  166.4929 C.ar    1  UNL1        0.0208
     32 C         138.0630  138.5800  166.7223 C.ar    1  UNL1        0.0989
     33 N         138.1435  137.3487  165.8694 N.ar    1  UNL1       -0.2422
     34 C         139.1776  137.2524  164.7871 C.ar    1  UNL1        0.1019
@<TRIPOS>BOND
     1    23    24    1
     2    24    25   ar
     3    25    22    1
     4    22    21    1
     5    21    20    1
     6    20    19    1
     7    19     1    1
     8     1     2    1
     9     2     3    1
    10     3     4    1
    11     4     5    1
    12     5     6    1
    13     6     9    1
    14     9    10   ar
    15    10    11   ar
    16    11    12   ar
    17    12    15    1
    18    15    16    1
    19    15    17    1
    20    15    18    1
    21    12    13   ar
    22    13    14   ar
    23     6     7    1
    24     7     8    1
    25    25    26   ar
    26    26    27   ar
    27    27    28   ar
    28    28    29    1
    29    29    30   ar
    30    30    31   ar
    31    31    32   ar
    32    32    33   ar
    33    33    34   ar
    34    28    24   ar
    35    34    29   ar
    36     8     1    1
    37     7     3    1
    38    14     9   ar
@<TRIPOS>MOLECULE
*****
 34 38 0 0 0
SMALL
GASTEIGER

@<TRIPOS>ATOM
      1 N         142.3443  143.8325  161.9933 N.3     1  UNL1       -0.2712
      2 C         143.5743  143.1674  161.4504 C.3     1  UNL1        0.0738
      3 C         144.1151  142.2560  162.5119 C.3     1  UNL1        0.0372
      4 C         145.2096  141.2817  162.8324 C.3     1  UNL1        0.0245
      5 C         144.9904  140.7813  164.2294 C.3     1  UNL1        0.0909
      6 N         143.7603  141.4464  164.7723 N.pl3   1  UNL1       -0.3077
      7 C         143.2194  142.3578  163.7108 C.3     1  UNL1        0.0901
      8 C         142.1249  143.3322  163.3903 C.3     1  UNL1        0.0921
      9 C         143.1741  141.2369  166.1370 C.ar    1  UNL1        0.0478
     10 C         142.8381  142.4181  166.9983 C.ar    1  UNL1        0.0145
     11 C         142.2519  142.2086  168.3631 C.ar    1  UNL1        0.0051
     12 C         142.0017  140.8179  168.8665 C.ar    1  UNL1        0.0715
     13 C         142.3378  139.6367  168.0051 C.ar    1  UNL1        0.0051
     14 C         142.9240  139.8462  166.6404 C.ar    1  UNL1        0.0145
     15 C         141.4155  140.6084  170.2312 C.3     1  UNL1        0.4186
     16 F         140.8293  140.3989  171.5959 F       1  UNL1       -0.1659
     17 F         142.3676  141.6209  170.7956 F       1  UNL1       -0.1659
     18 F         140.4635  139.5959  169.6668 F       1  UNL1       -0.1659
     19 C         141.4845  144.8239  161.2667 C.3     1  UNL1        0.0731
     20 C         141.3706  144.7647  159.7722 C.3     1  UNL1        0.0294
     21 C         140.0906  144.3111  159.1349 C.3     1  UNL1        0.0666
     22 S         139.5902  142.9163  159.3672 S.3     1  UNL1       -0.0756
     23 C         140.6852  140.6509  161.4453 C.3     1  UNL1        0.1340
     24 N         139.4714  141.5109  161.6378 N.ar    1  UNL1       -0.2884
     25 C         138.9681  142.5522  160.6826 C.ar    1  UNL1        0.1932
     26 N         137.7333  143.1654  161.2737 N.ar    1  UNL1       -0.1221
     27 N         137.4735  142.5031  162.5943 N.ar    1  UNL1       -0.1282
     28 C         138.5477  141.4805  162.8194 C.ar    1  UNL1        0.1683
     29 C         138.6756  140.5849  164.0158 C.ar    1  UNL1        0.0551
     30 C         139.0275  141.1658  165.3533 C.ar    1  UNL1        0.0062
     31 C         139.1554  140.2702  166.5497 C.ar    1  UNL1        0.0208
     32 C         138.9316  138.7936  166.4086 C.ar    1  UNL1        0.0989
     33 N         138.5798  138.2128  165.0712 N.ar    1  UNL1       -0.2422
     34 C         138.4518  139.1085  163.8747 C.ar    1  UNL1        0.1019
@<TRIPOS>BOND
     1    23    24    1
     2    24    25   ar
     3    25    22    1
     4    22    21    1
     5    21    20    1
     6    20    19    1
     7    19     1    1
     8     1     2    1
     9     2     3    1
    10     3     4    1
    11     4     5    1
    12     5     6    1
    13     6     9    1
    14     9    10   ar
    15    10    11   ar
    16    11    12   ar
    17    12    15    1
    18    15    16    1
    19    15    17    1
    20    15    18    1
    21    12    13   ar
    22    13    14   ar
    23     6     7    1
    24     7     8    1
    25    25    26   ar
    26    26    27   ar
    27    27    28   ar
    28    28    29    1
    29    29    30   ar
    30    30    31   ar
    31    31    32   ar
    32    32    33   ar
    33    33    34   ar
    34    28    24   ar
    35    34    29   ar
    36     8     1    1
    37     7     3    1
    38    14     9   ar
@<TRIPOS>MOLECULE
*****
 34 38 0 0 0
SMALL
GASTEIGER

@<TRIPOS>ATOM
      1 N         138.0215  140.7252  162.6541 N.3     1  UNL1       -0.2712
      2 C         137.7123  142.1879  162.5322 C.3     1  UNL1        0.0738
      3 C         138.3309  142.8916  163.7037 C.3     1  UNL1        0.0372
      4 C         138.5220  144.2304  164.3524 C.3     1  UNL1        0.0245
      5 C         139.3317  144.0301  165.5992 C.3     1  UNL1        0.0909
      6 N         139.6409  142.5673  165.7210 N.pl3   1  UNL1       -0.3077
      7 C         139.0223  141.8637  164.5495 C.3     1  UNL1        0.0901
      8 C         138.8312  140.5248  163.9008 C.3     1  UNL1        0.0921
      9 C         140.4300  141.9216  166.8211 C.ar    1  UNL1        0.0478
     10 C         139.8470  140.7710  167.5866 C.ar    1  UNL1        0.0145
     11 C         140.6361  140.1253  168.6867 C.ar    1  UNL1        0.0051
     12 C         142.0083  140.6302  169.0214 C.ar    1  UNL1        0.0715
     13 C         142.5915  141.7809  168.2559 C.ar    1  UNL1        0.0051
     14 C         141.8023  142.4266  167.1557 C.ar    1  UNL1        0.0145
     15 C         142.7975  139.9845  170.1215 C.3     1  UNL1        0.4186
     16 F         143.5867  139.3388  171.2216 F       1  UNL1       -0.1659
     17 F         143.7238  141.1640  170.1493 F       1  UNL1       -0.1659
     18 F         141.8712  138.8050  170.0937 F       1  UNL1       -0.1659
     19 C         137.5959  139.6514  161.6972 C.3     1  UNL1        0.0731
     20 C         138.3306  138.3441  161.6617 C.3     1  UNL1        0.0294
     21 C         139.2104  138.0096  160.4938 C.3     1  UNL1        0.0666
     22 S         140.4755  138.7816  160.2624 S.3     1  UNL1       -0.0756
     23 C         141.2254  141.9161  160.7745 C.3     1  UNL1        0.1340
     24 N         141.5914  140.7652  161.6642 N.ar    1  UNL1       -0.2884
     25 C         141.2467  139.3245  161.4289 C.ar    1  UNL1        0.1932
     26 N         141.8085  138.5219  162.5647 N.ar    1  UNL1       -0.1221
     27 N         142.5005  139.4666  163.5021 N.ar    1  UNL1       -0.1282
     28 C         142.3663  140.8531  162.9456 C.ar    1  UNL1        0.1683
     29 C         142.9113  142.1072  163.5622 C.ar    1  UNL1        0.0551
     30 C         144.1674  142.0561  164.3805 C.ar    1  UNL1        0.0062
     31 C         144.7124  143.3102  164.9971 C.ar    1  UNL1        0.0208
     32 C         144.0013  144.6155  164.7953 C.ar    1  UNL1        0.0989
     33 N         142.7452  144.6666  163.9770 N.ar    1  UNL1       -0.2422
     34 C         142.2002  143.4124  163.3604 C.ar    1  UNL1        0.1019
@<TRIPOS>BOND
     1    23    24    1
     2    24    25   ar
     3    25    22    1
     4    22    21    1
     5    21    20    1
     6    20    19    1
     7    19     1    1
     8     1     2    1
     9     2     3    1
    10     3     4    1
    11     4     5    1
    12     5     6    1
    13     6     9    1
    14     9    10   ar
    15    10    11   ar
    16    11    12   ar
    17    12    15    1
    18    15    16    1
    19    15    17    1
    20    15    18    1
    21    12    13   ar
    22    13    14   ar
    23     6     7    1
    24     7     8    1
    25    25    26   ar
    26    26    27   ar
    27    27    28   ar
    28    28    29    1
    29    29    30   ar
    30    30    31   ar
    31    31    32   ar
    32    32    33   ar
    33    33    34   ar
    34    28    24   ar
    35    34    29   ar
    36     8     1    1
    37     7     3    1
    38    14     9   ar
