@<TRIPOS>MOLECULE
*****
 25 27 0 0 0
SMALL
GASTEIGER

@<TRIPOS>ATOM
      1 C         141.4966  140.9848  167.2559 C.3     1  UNL1        0.0847
      2 N         141.2087  141.3737  168.6758 N.3     1  UNL1       -0.2676
      3 C         141.6699  140.4965  169.8018 C.3     1  UNL1        0.0896
      4 C         141.3821  140.8853  171.2216 C.3     1  UNL1        0.0862
      5 N         140.6332  142.1513  171.5154 N.3     1  UNL1       -0.2951
      6 C         140.1720  143.0285  170.3894 C.3     1  UNL1        0.0862
      7 C         140.4598  142.6397  168.9696 C.3     1  UNL1        0.0896
      8 H         141.2396  142.7223  172.1041 H       1  UNL1        0.1233
      9 C         140.6500  139.9504  166.5753 C.ar    1  UNL1       -0.0075
     10 C         139.1980  139.8192  166.9278 C.ar    1  UNL1       -0.0030
     11 C         138.3514  138.7848  166.2471 C.ar    1  UNL1       -0.0003
     12 C         138.9569  137.8816  165.2139 C.ar    1  UNL1       -0.0000
     13 C         140.4090  138.0128  164.8614 C.ar    1  UNL1       -0.0003
     14 C         141.2555  139.0472  165.5420 C.ar    1  UNL1       -0.0030
     15 C         142.6310  141.6304  166.5167 C.3     1  UNL1        0.0499
     16 C         143.4889  143.3666  164.7847 C.ar    1  UNL1        0.1346
     17 C         143.2169  144.4825  163.8200 C.ar    1  UNL1        0.0366
     18 C         141.8151  144.9783  163.6226 C.ar    1  UNL1        0.0031
     19 C         140.6852  144.3581  164.3899 C.ar    1  UNL1       -0.0001
     20 C         140.9571  143.2422  165.3546 C.ar    1  UNL1       -0.0012
     21 C         142.3590  142.7464  165.5520 C.ar    1  UNL1        0.0135
     22 O         144.8908  142.8707  164.9821 O.3     1  UNL1       -0.4758
     23 C         145.5080  141.9461  163.9752 C.3     1  UNL1        0.2054
     24 C         144.8864  139.4607  164.4069 C.3     1  UNL1        0.0040
     25 C         144.7872  140.6969  163.5631 C.3     1  UNL1        0.0473
@<TRIPOS>BOND
     1    24    25    1
     2    25    23    1
     3    23    22    1
     4    22    16    1
     5    16    17   ar
     6    17    18   ar
     7    18    19   ar
     8    19    20   ar
     9    20    21   ar
    10    21    15    1
    11    15     1    1
    12     1     9    1
    13     9    10   ar
    14    10    11   ar
    15    11    12   ar
    16    12    13   ar
    17    13    14   ar
    18     1     2    1
    19     2     3    1
    20     3     4    1
    21     4     5    1
    22     5     6    1
    23     6     7    1
    24    21    16   ar
    25    14     9   ar
    26     7     2    1
    27     5     8    1
@<TRIPOS>MOLECULE
*****
 25 27 0 0 0
SMALL
GASTEIGER

@<TRIPOS>ATOM
      1 C         140.3811  141.1624  167.5258 C.3     1  UNL1        0.0847
      2 N         140.9943  141.0049  168.8856 N.3     1  UNL1       -0.2676
      3 C         142.1149  140.0298  169.0946 C.3     1  UNL1        0.0896
      4 C         142.7281  139.8723  170.4544 C.3     1  UNL1        0.0862
      5 N         142.2208  140.6897  171.6052 N.3     1  UNL1       -0.2951
      6 C         141.1002  141.6647  171.3962 C.3     1  UNL1        0.0862
      7 C         140.4870  141.8223  170.0364 C.3     1  UNL1        0.0896
      8 H         143.0142  141.2243  171.9590 H       1  UNL1        0.1233
      9 C         139.8632  139.9606  166.7927 C.ar    1  UNL1       -0.0075
     10 C         138.5175  139.3944  167.1370 C.ar    1  UNL1       -0.0030
     11 C         137.9997  138.1925  166.4039 C.ar    1  UNL1       -0.0003
     12 C         138.8275  137.5568  165.3266 C.ar    1  UNL1       -0.0000
     13 C         140.1732  138.1230  164.9824 C.ar    1  UNL1       -0.0003
     14 C         140.6910  139.3249  165.7154 C.ar    1  UNL1       -0.0030
     15 C         140.2857  142.5218  166.8990 C.3     1  UNL1        0.0499
     16 C         140.8738  143.8790  164.7630 C.ar    1  UNL1        0.1346
     17 C         141.8704  144.2968  163.7228 C.ar    1  UNL1        0.0366
     18 C         143.2758  143.7755  163.7785 C.ar    1  UNL1        0.0031
     19 C         143.6845  142.8362  164.8743 C.ar    1  UNL1       -0.0001
     20 C         142.6878  142.4184  165.9144 C.ar    1  UNL1       -0.0012
     21 C         141.2825  142.9397  165.8588 C.ar    1  UNL1        0.0135
     22 O         139.4684  144.4003  164.7074 O.3     1  UNL1       -0.4758
     23 C         138.4462  143.7116  163.8524 C.3     1  UNL1        0.2054
     24 C         138.0171  141.1497  163.8056 C.3     1  UNL1        0.0040
     25 C         137.7218  142.5061  164.3737 C.3     1  UNL1        0.0473
@<TRIPOS>BOND
     1    24    25    1
     2    25    23    1
     3    23    22    1
     4    22    16    1
     5    16    17   ar
     6    17    18   ar
     7    18    19   ar
     8    19    20   ar
     9    20    21   ar
    10    21    15    1
    11    15     1    1
    12     1     9    1
    13     9    10   ar
    14    10    11   ar
    15    11    12   ar
    16    12    13   ar
    17    13    14   ar
    18     1     2    1
    19     2     3    1
    20     3     4    1
    21     4     5    1
    22     5     6    1
    23     6     7    1
    24    21    16   ar
    25    14     9   ar
    26     7     2    1
    27     5     8    1
@<TRIPOS>MOLECULE
*****
 25 27 0 0 0
SMALL
GASTEIGER

@<TRIPOS>ATOM
      1 C         141.3883  141.9255  167.0149 C.3     1  UNL1        0.0847
      2 N         141.1553  141.0875  168.2370 N.3     1  UNL1       -0.2676
      3 C         139.8455  141.1687  168.9635 C.3     1  UNL1        0.0896
      4 C         139.6124  140.3307  170.1855 C.3     1  UNL1        0.0862
      5 N         140.6892  139.4115  170.6811 N.3     1  UNL1       -0.2951
      6 C         141.9990  139.3303  169.9546 C.3     1  UNL1        0.0862
      7 C         142.2320  140.1683  168.7325 C.3     1  UNL1        0.0896
      8 H         140.2950  138.4707  170.6836 H       1  UNL1        0.1233
      9 C         140.2434  142.2599  166.1053 C.ar    1  UNL1       -0.0075
     10 C         139.7412  143.6707  166.0191 C.ar    1  UNL1       -0.0030
     11 C         138.5963  144.0049  165.1094 C.ar    1  UNL1       -0.0003
     12 C         137.9536  142.9285  164.2860 C.ar    1  UNL1       -0.0000
     13 C         138.4558  141.5177  164.3722 C.ar    1  UNL1       -0.0003
     14 C         139.6007  141.1833  165.2818 C.ar    1  UNL1       -0.0030
     15 C         142.7662  142.4292  166.7025 C.3     1  UNL1        0.0499
     16 C         144.3717  142.7099  164.6792 C.ar    1  UNL1        0.1346
     17 C         145.1502  142.1107  163.5457 C.ar    1  UNL1        0.0366
     18 C         145.1017  140.6314  163.3020 C.ar    1  UNL1        0.0031
     19 C         144.2748  139.7514  164.1918 C.ar    1  UNL1       -0.0001
     20 C         143.4963  140.3507  165.3253 C.ar    1  UNL1       -0.0012
     21 C         143.5447  141.8299  165.5690 C.ar    1  UNL1        0.0135
     22 O         144.4201  144.1893  164.9229 O.3     1  UNL1       -0.4758
     23 C         143.7220  145.1274  163.9834 C.3     1  UNL1        0.2054
     24 C         141.6046  144.1616  162.8284 C.3     1  UNL1        0.0040
     25 C         142.2297  145.0741  163.8416 C.3     1  UNL1        0.0473
@<TRIPOS>BOND
     1    24    25    1
     2    25    23    1
     3    23    22    1
     4    22    16    1
     5    16    17   ar
     6    17    18   ar
     7    18    19   ar
     8    19    20   ar
     9    20    21   ar
    10    21    15    1
    11    15     1    1
    12     1     9    1
    13     9    10   ar
    14    10    11   ar
    15    11    12   ar
    16    12    13   ar
    17    13    14   ar
    18     1     2    1
    19     2     3    1
    20     3     4    1
    21     4     5    1
    22     5     6    1
    23     6     7    1
    24    21    16   ar
    25    14     9   ar
    26     7     2    1
    27     5     8    1
@<TRIPOS>MOLECULE
*****
 25 27 0 0 0
SMALL
GASTEIGER

@<TRIPOS>ATOM
      1 C         141.2390  140.7613  167.5156 C.3     1  UNL1        0.0847
      2 N         141.5602  141.2752  168.8878 N.3     1  UNL1       -0.2676
      3 C         140.9512  140.6240  170.0941 C.3     1  UNL1        0.0896
      4 C         141.2723  141.1378  171.4662 C.3     1  UNL1        0.0862
      5 N         142.2025  142.3028  171.6321 N.3     1  UNL1       -0.2951
      6 C         142.8115  142.9540  170.4259 C.3     1  UNL1        0.0862
      7 C         142.4904  142.4402  169.0537 C.3     1  UNL1        0.0896
      8 H         142.9754  141.9818  172.2152 H       1  UNL1        0.1233
      9 C         142.3313  140.2157  166.6444 C.ar    1  UNL1       -0.0075
     10 C         142.9510  138.8871  166.9622 C.ar    1  UNL1       -0.0030
     11 C         144.0434  138.3415  166.0909 C.ar    1  UNL1       -0.0003
     12 C         144.5160  139.1244  164.9019 C.ar    1  UNL1       -0.0000
     13 C         143.8963  140.4529  164.5842 C.ar    1  UNL1       -0.0003
     14 C         142.8040  140.9986  165.4554 C.ar    1  UNL1       -0.0030
     15 C         139.8254  140.7932  167.0148 C.3     1  UNL1        0.0499
     16 C         138.5596  141.3490  164.8151 C.ar    1  UNL1        0.1346
     17 C         138.1595  142.3384  163.7610 C.ar    1  UNL1        0.0366
     18 C         138.6253  143.7612  163.8525 C.ar    1  UNL1        0.0031
     19 C         139.4911  144.1948  164.9981 C.ar    1  UNL1       -0.0001
     20 C         139.8912  143.2055  166.0521 C.ar    1  UNL1       -0.0012
     21 C         139.4254  141.7826  165.9606 C.ar    1  UNL1        0.0135
     22 O         138.0938  139.9261  164.7236 O.3     1  UNL1       -0.4758
     23 C         138.9288  138.9084  164.0045 C.3     1  UNL1        0.2054
     24 C         140.9783  137.3217  164.1832 C.3     1  UNL1        0.0040
     25 C         139.7401  137.9171  164.7851 C.3     1  UNL1        0.0473
@<TRIPOS>BOND
     1    24    25    1
     2    25    23    1
     3    23    22    1
     4    22    16    1
     5    16    17   ar
     6    17    18   ar
     7    18    19   ar
     8    19    20   ar
     9    20    21   ar
    10    21    15    1
    11    15     1    1
    12     1     9    1
    13     9    10   ar
    14    10    11   ar
    15    11    12   ar
    16    12    13   ar
    17    13    14   ar
    18     1     2    1
    19     2     3    1
    20     3     4    1
    21     4     5    1
    22     5     6    1
    23     6     7    1
    24    21    16   ar
    25    14     9   ar
    26     7     2    1
    27     5     8    1
@<TRIPOS>MOLECULE
*****
 25 27 0 0 0
SMALL
GASTEIGER

@<TRIPOS>ATOM
      1 C         141.1546  141.0615  167.2757 C.3     1  UNL1        0.0847
      2 N         141.4626  140.9669  168.7408 N.3     1  UNL1       -0.2676
      3 C         140.6592  141.7597  169.7287 C.3     1  UNL1        0.0896
      4 C         140.9671  141.6652  171.1937 C.3     1  UNL1        0.0862
      5 N         142.0785  140.7778  171.6707 N.3     1  UNL1       -0.2951
      6 C         142.8818  139.9850  170.6827 C.3     1  UNL1        0.0862
      7 C         142.5739  140.0796  169.2178 C.3     1  UNL1        0.0896
      8 H         141.6630  140.1076  172.3177 H       1  UNL1        0.1233
      9 C         140.3736  139.9726  166.6017 C.ar    1  UNL1       -0.0075
     10 C         141.0172  139.1389  165.5336 C.ar    1  UNL1       -0.0030
     11 C         140.2361  138.0500  164.8596 C.ar    1  UNL1       -0.0003
     12 C         138.8115  137.7948  165.2537 C.ar    1  UNL1       -0.0000
     13 C         138.1679  138.6285  166.3217 C.ar    1  UNL1       -0.0003
     14 C         138.9489  139.7173  166.9957 C.ar    1  UNL1       -0.0030
     15 C         141.6276  142.2450  166.4848 C.3     1  UNL1        0.0499
     16 C         140.9252  142.7732  164.0398 C.ar    1  UNL1        0.1346
     17 C         139.9990  143.4464  163.0709 C.ar    1  UNL1        0.0366
     18 C         138.8488  144.2648  163.5781 C.ar    1  UNL1        0.0031
     19 C         138.6248  144.4099  165.0542 C.ar    1  UNL1       -0.0001
     20 C         139.5511  143.7366  166.0231 C.ar    1  UNL1       -0.0012
     21 C         140.7013  142.9183  165.5159 C.ar    1  UNL1        0.0135
     22 O         142.0755  141.9547  163.5326 O.3     1  UNL1       -0.4758
     23 C         143.3363  142.6312  163.0824 C.3     1  UNL1        0.2054
     24 C         143.5674  145.1417  163.7102 C.3     1  UNL1        0.0040
     25 C         143.9521  143.7079  163.9258 C.3     1  UNL1        0.0473
@<TRIPOS>BOND
     1    24    25    1
     2    25    23    1
     3    23    22    1
     4    22    16    1
     5    16    17   ar
     6    17    18   ar
     7    18    19   ar
     8    19    20   ar
     9    20    21   ar
    10    21    15    1
    11    15     1    1
    12     1     9    1
    13     9    10   ar
    14    10    11   ar
    15    11    12   ar
    16    12    13   ar
    17    13    14   ar
    18     1     2    1
    19     2     3    1
    20     3     4    1
    21     4     5    1
    22     5     6    1
    23     6     7    1
    24    21    16   ar
    25    14     9   ar
    26     7     2    1
    27     5     8    1
@<TRIPOS>MOLECULE
*****
 25 27 0 0 0
SMALL
GASTEIGER

@<TRIPOS>ATOM
      1 C         140.9698  140.4787  165.5234 C.3     1  UNL1        0.0847
      2 N         141.1844  139.3896  164.5144 N.3     1  UNL1       -0.2676
      3 C         142.5142  139.2480  163.8351 C.3     1  UNL1        0.0896
      4 C         142.7289  138.1590  162.8262 C.3     1  UNL1        0.0862
      5 N         141.6137  137.2116  162.4966 N.3     1  UNL1       -0.2951
      6 C         140.2839  137.3531  163.1759 C.3     1  UNL1        0.0862
      7 C         140.0692  138.4421  164.1849 C.3     1  UNL1        0.0896
      8 H         141.9531  136.2729  162.7065 H       1  UNL1        0.1233
      9 C         141.1048  140.1819  166.9875 C.ar    1  UNL1       -0.0075
     10 C         142.4041  139.6663  167.5315 C.ar    1  UNL1       -0.0030
     11 C         142.5391  139.3695  168.9957 C.ar    1  UNL1       -0.0003
     12 C         141.3749  139.5883  169.9158 C.ar    1  UNL1       -0.0000
     13 C         140.0756  140.1039  169.3717 C.ar    1  UNL1       -0.0003
     14 C         139.9405  140.4007  167.9076 C.ar    1  UNL1       -0.0030
     15 C         140.6202  141.8645  165.0681 C.3     1  UNL1        0.0499
     16 C         141.4838  143.7561  163.5106 C.ar    1  UNL1        0.1346
     17 C         142.5690  144.7068  163.1001 C.ar    1  UNL1        0.0366
     18 C         143.8757  144.7166  163.8365 C.ar    1  UNL1        0.0031
     19 C         144.0972  143.7757  164.9835 C.ar    1  UNL1       -0.0001
     20 C         143.0121  142.8250  165.3941 C.ar    1  UNL1       -0.0012
     21 C         141.7054  142.8152  164.6576 C.ar    1  UNL1        0.0135
     22 O         140.1771  143.7463  162.7741 O.3     1  UNL1       -0.4758
     23 C         139.1112  144.7419  163.1245 C.3     1  UNL1        0.2054
     24 C         138.5589  144.9536  165.6544 C.3     1  UNL1        0.0040
     25 C         138.1908  144.4799  164.2796 C.3     1  UNL1        0.0473
@<TRIPOS>BOND
     1    24    25    1
     2    25    23    1
     3    23    22    1
     4    22    16    1
     5    16    17   ar
     6    17    18   ar
     7    18    19   ar
     8    19    20   ar
     9    20    21   ar
    10    21    15    1
    11    15     1    1
    12     1     9    1
    13     9    10   ar
    14    10    11   ar
    15    11    12   ar
    16    12    13   ar
    17    13    14   ar
    18     1     2    1
    19     2     3    1
    20     3     4    1
    21     4     5    1
    22     5     6    1
    23     6     7    1
    24    21    16   ar
    25    14     9   ar
    26     7     2    1
    27     5     8    1
@<TRIPOS>MOLECULE
*****
 25 27 0 0 0
SMALL
GASTEIGER

@<TRIPOS>ATOM
      1 C         141.2127  141.4422  166.8806 C.3     1  UNL1        0.0847
      2 N         141.3602  141.8180  168.3253 N.3     1  UNL1       -0.2676
      3 C         140.2099  141.6317  169.2699 C.3     1  UNL1        0.0896
      4 C         140.3572  142.0074  170.7145 C.3     1  UNL1        0.0862
      5 N         141.6549  142.5694  171.2146 N.3     1  UNL1       -0.2951
      6 C         142.8052  142.7556  170.2701 C.3     1  UNL1        0.0862
      7 C         142.6578  142.3799  168.8255 C.3     1  UNL1        0.0896
      8 H         141.9795  141.9471  171.9548 H       1  UNL1        0.1233
      9 C         140.1162  142.0487  166.0561 C.ar    1  UNL1       -0.0075
     10 C         139.1027  141.1659  165.3902 C.ar    1  UNL1       -0.0030
     11 C         138.0062  141.7724  164.5656 C.ar    1  UNL1       -0.0003
     12 C         137.9232  143.2617  164.4070 C.ar    1  UNL1       -0.0000
     13 C         138.9368  144.1445  165.0729 C.ar    1  UNL1       -0.0003
     14 C         140.0333  143.5380  165.8974 C.ar    1  UNL1       -0.0030
     15 C         142.1618  140.4600  166.2605 C.3     1  UNL1        0.0499
     16 C         143.9154  140.0168  164.3954 C.ar    1  UNL1        0.1346
     17 C         145.0325  140.5032  163.5206 C.ar    1  UNL1        0.0366
     18 C         145.5133  141.9193  163.6360 C.ar    1  UNL1        0.0031
     19 C         144.8769  142.8490  164.6262 C.ar    1  UNL1       -0.0001
     20 C         143.7597  142.3626  165.5011 C.ar    1  UNL1       -0.0012
     21 C         143.2790  140.9465  165.3856 C.ar    1  UNL1        0.0135
     22 O         143.4345  138.6006  164.2800 O.3     1  UNL1       -0.4758
     23 C         142.6362  138.1747  163.0836 C.3     1  UNL1        0.2054
     24 C         140.7195  137.3731  164.6436 C.3     1  UNL1        0.0040
     25 C         141.3015  137.5156  163.2685 C.3     1  UNL1        0.0473
@<TRIPOS>BOND
     1    24    25    1
     2    25    23    1
     3    23    22    1
     4    22    16    1
     5    16    17   ar
     6    17    18   ar
     7    18    19   ar
     8    19    20   ar
     9    20    21   ar
    10    21    15    1
    11    15     1    1
    12     1     9    1
    13     9    10   ar
    14    10    11   ar
    15    11    12   ar
    16    12    13   ar
    17    13    14   ar
    18     1     2    1
    19     2     3    1
    20     3     4    1
    21     4     5    1
    22     5     6    1
    23     6     7    1
    24    21    16   ar
    25    14     9   ar
    26     7     2    1
    27     5     8    1
@<TRIPOS>MOLECULE
*****
 25 27 0 0 0
SMALL
GASTEIGER

@<TRIPOS>ATOM
      1 C         141.8214  141.1553  164.5610 C.3     1  UNL1        0.0847
      2 N         143.1190  141.4889  163.8863 N.3     1  UNL1       -0.2676
      3 C         144.4131  141.0000  164.4661 C.3     1  UNL1        0.0896
      4 C         145.7106  141.3335  163.7915 C.3     1  UNL1        0.0862
      5 N         145.7140  142.1559  162.5371 N.3     1  UNL1       -0.2951
      6 C         144.4199  142.6447  161.9573 C.3     1  UNL1        0.0862
      7 C         143.1224  142.3112  162.6319 C.3     1  UNL1        0.0896
      8 H         146.1651  141.5921  161.8167 H       1  UNL1        0.1233
      9 C         140.6602  142.0996  164.4620 C.ar    1  UNL1       -0.0075
     10 C         140.6295  143.3414  165.3027 C.ar    1  UNL1       -0.0030
     11 C         139.4682  144.2857  165.2036 C.ar    1  UNL1       -0.0003
     12 C         138.3376  143.9881  164.2639 C.ar    1  UNL1       -0.0000
     13 C         138.3683  142.7462  163.4231 C.ar    1  UNL1       -0.0003
     14 C         139.5295  141.8020  163.5222 C.ar    1  UNL1       -0.0030
     15 C         141.6851  139.8775  165.3347 C.3     1  UNL1        0.0499
     16 C         140.1092  139.9865  167.3973 C.ar    1  UNL1        0.1346
     17 C         139.9166  140.0270  168.8843 C.ar    1  UNL1        0.0366
     18 C         141.1076  139.9990  169.7958 C.ar    1  UNL1        0.0031
     19 C         142.4911  139.9305  169.2202 C.ar    1  UNL1       -0.0001
     20 C         142.6836  139.8900  167.7332 C.ar    1  UNL1       -0.0012
     21 C         141.4926  139.9180  166.8218 C.ar    1  UNL1        0.0135
     22 O         138.9182  140.0145  166.4858 O.3     1  UNL1       -0.4758
     23 C         138.1394  138.7582  166.2306 C.3     1  UNL1        0.2054
     24 C         138.9160  137.9174  163.8982 C.3     1  UNL1        0.0040
     25 C         138.7197  137.6786  165.3660 C.3     1  UNL1        0.0473
@<TRIPOS>BOND
     1    24    25    1
     2    25    23    1
     3    23    22    1
     4    22    16    1
     5    16    17   ar
     6    17    18   ar
     7    18    19   ar
     8    19    20   ar
     9    20    21   ar
    10    21    15    1
    11    15     1    1
    12     1     9    1
    13     9    10   ar
    14    10    11   ar
    15    11    12   ar
    16    12    13   ar
    17    13    14   ar
    18     1     2    1
    19     2     3    1
    20     3     4    1
    21     4     5    1
    22     5     6    1
    23     6     7    1
    24    21    16   ar
    25    14     9   ar
    26     7     2    1
    27     5     8    1
@<TRIPOS>MOLECULE
*****
 25 27 0 0 0
SMALL
GASTEIGER

@<TRIPOS>ATOM
      1 C         142.2672  141.3562  167.0414 C.3     1  UNL1        0.0847
      2 N         141.8200  141.8419  168.3883 N.3     1  UNL1       -0.2676
      3 C         140.6707  142.7997  168.4966 C.3     1  UNL1        0.0896
      4 C         140.2235  143.2854  169.8435 C.3     1  UNL1        0.0862
      5 N         140.9257  142.8133  171.0820 N.3     1  UNL1       -0.2951
      6 C         142.0750  141.8556  170.9737 C.3     1  UNL1        0.0862
      7 C         142.5222  141.3699  169.6269 C.3     1  UNL1        0.0896
      8 H         140.2213  142.3631  171.6664 H       1  UNL1        0.1233
      9 C         142.6920  142.3404  165.9922 C.ar    1  UNL1       -0.0075
     10 C         141.7687  142.6727  164.8577 C.ar    1  UNL1       -0.0030
     11 C         142.1937  143.6570  163.8086 C.ar    1  UNL1       -0.0003
     12 C         143.5418  144.3090  163.8940 C.ar    1  UNL1       -0.0000
     13 C         144.4651  143.9768  165.0285 C.ar    1  UNL1       -0.0003
     14 C         144.0402  142.9925  166.0776 C.ar    1  UNL1       -0.0030
     15 C         142.2895  139.8862  166.7436 C.3     1  UNL1        0.0499
     16 C         141.2728  138.3971  164.8730 C.ar    1  UNL1        0.1346
     17 C         140.0826  137.7427  164.2366 C.ar    1  UNL1        0.0366
     18 C         138.7187  137.9229  164.8343 C.ar    1  UNL1        0.0031
     19 C         138.5451  138.7576  166.0685 C.ar    1  UNL1       -0.0001
     20 C         139.7353  139.4120  166.7049 C.ar    1  UNL1       -0.0012
     21 C         141.0992  139.2318  166.1072 C.ar    1  UNL1        0.0135
     22 O         142.6368  138.2169  164.2753 O.3     1  UNL1       -0.4758
     23 C         143.0161  138.9665  163.0327 C.3     1  UNL1        0.2054
     24 C         145.0807  139.9787  164.2421 C.3     1  UNL1        0.0040
     25 C         144.1518  139.9458  163.0648 C.3     1  UNL1        0.0473
@<TRIPOS>BOND
     1    24    25    1
     2    25    23    1
     3    23    22    1
     4    22    16    1
     5    16    17   ar
     6    17    18   ar
     7    18    19   ar
     8    19    20   ar
     9    20    21   ar
    10    21    15    1
    11    15     1    1
    12     1     9    1
    13     9    10   ar
    14    10    11   ar
    15    11    12   ar
    16    12    13   ar
    17    13    14   ar
    18     1     2    1
    19     2     3    1
    20     3     4    1
    21     4     5    1
    22     5     6    1
    23     6     7    1
    24    21    16   ar
    25    14     9   ar
    26     7     2    1
    27     5     8    1
