@<TRIPOS>MOLECULE
*****
 33 37 0 0 0
SMALL
GASTEIGER

@<TRIPOS>ATOM
      1 C         141.4311  142.2532  163.6886 C.ar    1  UNL1        0.1065
      2 N         142.7869  141.9219  163.1390 N.ar    1  UNL1       -0.1679
      3 N         143.0535  142.8364  161.9803 N.ar    1  UNL1       -0.2340
      4 C         141.8624  143.7329  161.8138 C.ar    1  UNL1        0.1653
      5 N         141.5614  144.8309  160.8372 N.ar    1  UNL1       -0.2050
      6 C         140.2575  145.5685  160.9164 C.ar    1  UNL1        0.2014
      7 N         139.2548  145.2080  161.9722 N.ar    1  UNL1       -0.2093
      8 C         139.5559  144.1100  162.9488 C.ar    1  UNL1        0.1316
      9 N         138.5532  143.7495  164.0046 N.pl3   1  UNL1       -0.3425
     10 C         140.8597  143.3725  162.8696 C.ar    1  UNL1        0.0860
     11 H         137.6975  144.2335  164.0565 H       1  UNL1        0.1437
     12 H         138.7508  143.0288  164.6455 H       1  UNL1        0.1437
     13 C         138.8799  140.1622  169.7194 C.ar    1  UNL1        0.2248
     14 C         139.6652  141.4229  169.9290 C.ar    1  UNL1        0.0577
     15 C         140.3325  142.0932  168.7648 C.ar    1  UNL1        0.0063
     16 C         140.2145  141.5029  167.3909 C.ar    1  UNL1        0.0180
     17 C         140.8818  142.1732  166.2267 C.ar    1  UNL1        0.0031
     18 C         140.7637  141.5828  164.8529 C.ar    1  UNL1        0.0196
     19 C         139.9784  140.3222  164.6431 C.ar    1  UNL1        0.0031
     20 C         139.3111  139.6519  165.8074 C.ar    1  UNL1        0.0193
     21 C         139.4291  140.2422  167.1813 C.ar    1  UNL1        0.0844
     22 N         138.7618  139.5719  168.3455 N.ar    1  UNL1       -0.2117
     23 O         138.2126  139.4919  170.8836 O.3     1  UNL1       -0.4602
     24 C         136.1815  138.1332  171.7658 C.3     1  UNL1        0.0512
     25 C         136.7570  139.1369  170.8112 C.3     1  UNL1        0.2072
     26 C         144.2933  142.8518  161.1364 C.3     1  UNL1        0.1291
     27 C         144.3439  142.0600  159.8634 C.3     1  UNL1        0.0272
     28 C         145.0387  142.6210  158.6582 C.3     1  UNL1        0.0194
     29 C         145.0893  141.8292  157.3852 C.3     1  UNL1        0.0722
     30 N         144.4451  140.4762  157.3174 N.3     1  UNL1       -0.2715
     31 C         144.4957  139.6844  156.0445 C.3     1  UNL1        0.0896
     32 C         143.7503  139.9152  158.5226 C.3     1  UNL1        0.0722
     33 C         143.6997  140.7070  159.7956 C.3     1  UNL1        0.0194
@<TRIPOS>BOND
     1    24    25    1
     2    25    23    1
     3    23    13    1
     4    13    14   ar
     5    14    15   ar
     6    15    16   ar
     7    16    17   ar
     8    17    18   ar
     9    18     1    1
    10     1     2   ar
    11     2     3   ar
    12     3    26    1
    13    26    27    1
    14    27    28    1
    15    28    29    1
    16    29    30    1
    17    30    31    1
    18    30    32    1
    19    32    33    1
    20     3     4   ar
    21     4     5   ar
    22     5     6   ar
    23     6     7   ar
    24     7     8   ar
    25     8     9    1
    26     8    10   ar
    27    18    19   ar
    28    19    20   ar
    29    20    21   ar
    30    21    22   ar
    31    22    13   ar
    32    21    16   ar
    33    10     1   ar
    34    33    27    1
    35    10     4   ar
    36     9    11    1
    37     9    12    1
@<TRIPOS>MOLECULE
*****
 33 37 0 0 0
SMALL
GASTEIGER

@<TRIPOS>ATOM
      1 C         140.9960  138.6049  159.9611 C.ar    1  UNL1        0.1065
      2 N         142.1541  137.8011  159.4484 N.ar    1  UNL1       -0.1679
      3 N         142.0214  137.6957  157.9580 N.ar    1  UNL1       -0.2340
      4 C         140.7813  138.4343  157.5496 C.ar    1  UNL1        0.1653
      5 N         140.1473  138.6678  156.2104 N.ar    1  UNL1       -0.2050
      6 C         138.8795  139.4632  156.1092 C.ar    1  UNL1        0.2014
      7 N         138.2458  140.0251  157.3472 N.ar    1  UNL1       -0.2093
      8 C         138.8798  139.7916  158.6864 C.ar    1  UNL1        0.1316
      9 N         138.2461  140.3534  159.9245 N.pl3   1  UNL1       -0.3425
     10 C         140.1476  138.9962  158.7876 C.ar    1  UNL1        0.0860
     11 H         137.4141  140.8755  159.8581 H       1  UNL1        0.1437
     12 H         138.6623  140.2002  160.8034 H       1  UNL1        0.1437
     13 C         139.0646  139.1271  166.5374 C.ar    1  UNL1        0.2248
     14 C         138.4502  137.8953  165.9415 C.ar    1  UNL1        0.0577
     15 C         138.7136  137.5445  164.5071 C.ar    1  UNL1        0.0063
     16 C         139.5914  138.4255  163.6685 C.ar    1  UNL1        0.0180
     17 C         139.8548  138.0747  162.2341 C.ar    1  UNL1        0.0031
     18 C         140.7326  138.9557  161.3956 C.ar    1  UNL1        0.0196
     19 C         141.3470  140.1876  161.9914 C.ar    1  UNL1        0.0031
     20 C         141.0836  140.5384  163.4258 C.ar    1  UNL1        0.0193
     21 C         140.2058  139.6573  164.2644 C.ar    1  UNL1        0.0844
     22 N         139.9424  140.0081  165.6988 N.ar    1  UNL1       -0.2117
     23 O         138.8011  139.4780  167.9718 O.3     1  UNL1       -0.4602
     24 C         139.4397  141.0095  169.9709 C.3     1  UNL1        0.0512
     25 C         139.8416  140.2076  168.7687 C.3     1  UNL1        0.2072
     26 C         142.9633  136.9778  157.0375 C.3     1  UNL1        0.1291
     27 C         142.7126  135.5434  156.6776 C.3     1  UNL1        0.0272
     28 C         141.7303  135.2021  155.5965 C.3     1  UNL1        0.0194
     29 C         141.4795  133.7676  155.2366 C.3     1  UNL1        0.0722
     30 N         142.2110  132.6745  155.9576 N.3     1  UNL1       -0.2715
     31 C         141.9603  131.2401  155.5976 C.3     1  UNL1        0.0896
     32 C         143.1933  133.0158  157.0386 C.3     1  UNL1        0.0722
     33 C         143.4441  134.4503  157.3986 C.3     1  UNL1        0.0194
@<TRIPOS>BOND
     1    24    25    1
     2    25    23    1
     3    23    13    1
     4    13    14   ar
     5    14    15   ar
     6    15    16   ar
     7    16    17   ar
     8    17    18   ar
     9    18     1    1
    10     1     2   ar
    11     2     3   ar
    12     3    26    1
    13    26    27    1
    14    27    28    1
    15    28    29    1
    16    29    30    1
    17    30    31    1
    18    30    32    1
    19    32    33    1
    20     3     4   ar
    21     4     5   ar
    22     5     6   ar
    23     6     7   ar
    24     7     8   ar
    25     8     9    1
    26     8    10   ar
    27    18    19   ar
    28    19    20   ar
    29    20    21   ar
    30    21    22   ar
    31    22    13   ar
    32    21    16   ar
    33    10     1   ar
    34    33    27    1
    35    10     4   ar
    36     9    11    1
    37     9    12    1
@<TRIPOS>MOLECULE
*****
 33 37 0 0 0
SMALL
GASTEIGER

@<TRIPOS>ATOM
      1 C         140.2598  138.7394  161.1067 C.ar    1  UNL1        0.1065
      2 N         141.5123  138.1848  160.4955 N.ar    1  UNL1       -0.1679
      3 N         141.4351  138.3916  159.0119 N.ar    1  UNL1       -0.2340
      4 C         140.1349  139.0742  158.7061 C.ar    1  UNL1        0.1653
      5 N         139.5185  139.5277  157.4160 N.ar    1  UNL1       -0.2050
      6 C         138.1756  140.1963  157.4206 C.ar    1  UNL1        0.2014
      7 N         137.4492  140.4112  158.7153 N.ar    1  UNL1       -0.2093
      8 C         138.0657  139.9576  160.0054 C.ar    1  UNL1        0.1316
      9 N         137.3393  140.1725  161.3001 N.pl3   1  UNL1       -0.3425
     10 C         139.4085  139.2891  160.0008 C.ar    1  UNL1        0.0860
     11 H         136.4580  140.6113  161.3031 H       1  UNL1        0.1437
     12 H         137.7439  139.8749  162.1468 H       1  UNL1        0.1437
     13 C         139.2986  139.9161  167.8106 C.ar    1  UNL1        0.2248
     14 C         140.0438  141.0717  167.2111 C.ar    1  UNL1        0.0577
     15 C         140.3851  141.0674  165.7505 C.ar    1  UNL1        0.0063
     16 C         139.9812  139.9077  164.8893 C.ar    1  UNL1        0.0180
     17 C         140.3225  139.9034  163.4286 C.ar    1  UNL1        0.0031
     18 C         139.9186  138.7436  162.5674 C.ar    1  UNL1        0.0196
     19 C         139.1733  137.5880  163.1668 C.ar    1  UNL1        0.0031
     20 C         138.8321  137.5922  164.6275 C.ar    1  UNL1        0.0193
     21 C         139.2360  138.7521  165.4887 C.ar    1  UNL1        0.0844
     22 N         138.8947  138.7563  166.9494 N.ar    1  UNL1       -0.2117
     23 O         138.9574  139.9203  169.2712 O.3     1  UNL1       -0.4602
     24 C         141.3562  139.5389  170.1933 C.3     1  UNL1        0.0512
     25 C         140.0197  140.2133  170.2888 C.3     1  UNL1        0.2072
     26 C         142.4754  137.9871  158.0099 C.3     1  UNL1        0.1291
     27 C         142.2649  136.7687  157.1606 C.3     1  UNL1        0.0272
     28 C         141.2256  136.7788  156.0791 C.3     1  UNL1        0.0194
     29 C         141.0150  135.5605  155.2298 C.3     1  UNL1        0.0722
     30 N         141.8439  134.3321  155.4619 N.3     1  UNL1       -0.2715
     31 C         141.6334  133.1137  154.6126 C.3     1  UNL1        0.0896
     32 C         142.8832  134.3220  156.5434 C.3     1  UNL1        0.0722
     33 C         143.0938  135.5403  157.3927 C.3     1  UNL1        0.0194
@<TRIPOS>BOND
     1    24    25    1
     2    25    23    1
     3    23    13    1
     4    13    14   ar
     5    14    15   ar
     6    15    16   ar
     7    16    17   ar
     8    17    18   ar
     9    18     1    1
    10     1     2   ar
    11     2     3   ar
    12     3    26    1
    13    26    27    1
    14    27    28    1
    15    28    29    1
    16    29    30    1
    17    30    31    1
    18    30    32    1
    19    32    33    1
    20     3     4   ar
    21     4     5   ar
    22     5     6   ar
    23     6     7   ar
    24     7     8   ar
    25     8     9    1
    26     8    10   ar
    27    18    19   ar
    28    19    20   ar
    29    20    21   ar
    30    21    22   ar
    31    22    13   ar
    32    21    16   ar
    33    10     1   ar
    34    33    27    1
    35    10     4   ar
    36     9    11    1
    37     9    12    1
@<TRIPOS>MOLECULE
*****
 33 37 0 0 0
SMALL
GASTEIGER

@<TRIPOS>ATOM
      1 C         139.3778  143.3190  160.8655 C.ar    1  UNL1        0.1065
      2 N         138.3086  142.6006  160.0969 N.ar    1  UNL1       -0.1679
      3 N         138.5004  142.9052  158.6407 N.ar    1  UNL1       -0.2340
      4 C         139.6881  143.8119  158.5093 C.ar    1  UNL1        0.1653
      5 N         140.3459  144.4377  157.3154 N.ar    1  UNL1       -0.2050
      6 C         141.5461  145.3193  157.4964 C.ar    1  UNL1        0.2014
      7 N         142.0883  145.5749  158.8714 N.ar    1  UNL1       -0.2093
      8 C         141.4305  144.9491  160.0654 C.ar    1  UNL1        0.1316
      9 N         141.9727  145.2048  161.4404 N.pl3   1  UNL1       -0.3425
     10 C         140.2304  144.0676  159.8843 C.ar    1  UNL1        0.0860
     11 H         142.7604  145.7834  161.5592 H       1  UNL1        0.1437
     12 H         141.5410  144.7941  162.2240 H       1  UNL1        0.1437
     13 C         140.9518  142.1446  167.4529 C.ar    1  UNL1        0.2248
     14 C         141.6045  141.0991  166.5981 C.ar    1  UNL1        0.0577
     15 C         141.4203  141.1248  165.1097 C.ar    1  UNL1        0.0063
     16 C         140.5833  142.1961  164.4760 C.ar    1  UNL1        0.0180
     17 C         140.3990  142.2219  162.9876 C.ar    1  UNL1        0.0031
     18 C         139.5620  143.2932  162.3539 C.ar    1  UNL1        0.0196
     19 C         138.9092  144.3389  163.2087 C.ar    1  UNL1        0.0031
     20 C         139.0934  144.3131  164.6971 C.ar    1  UNL1        0.0193
     21 C         139.9305  143.2417  165.3308 C.ar    1  UNL1        0.0844
     22 N         140.1148  143.2160  166.8192 N.ar    1  UNL1       -0.2117
     23 O         141.1360  142.1189  168.9413 O.3     1  UNL1       -0.4602
     24 C         143.6334  142.2276  169.6491 C.3     1  UNL1        0.0512
     25 C         142.2771  142.8632  169.5687 C.3     1  UNL1        0.2072
     26 C         137.6532  142.3932  157.5138 C.3     1  UNL1        0.1291
     27 C         137.9842  141.0834  156.8619 C.3     1  UNL1        0.0272
     28 C         139.0105  140.1781  157.4761 C.3     1  UNL1        0.0194
     29 C         139.3415  138.8683  156.8243 C.3     1  UNL1        0.0722
     30 N         138.6462  138.4638  155.5582 N.3     1  UNL1       -0.2715
     31 C         138.9772  137.1540  154.9064 C.3     1  UNL1        0.0896
     32 C         137.6199  139.3690  154.9440 C.3     1  UNL1        0.0722
     33 C         137.2889  140.6788  155.5959 C.3     1  UNL1        0.0194
@<TRIPOS>BOND
     1    24    25    1
     2    25    23    1
     3    23    13    1
     4    13    14   ar
     5    14    15   ar
     6    15    16   ar
     7    16    17   ar
     8    17    18   ar
     9    18     1    1
    10     1     2   ar
    11     2     3   ar
    12     3    26    1
    13    26    27    1
    14    27    28    1
    15    28    29    1
    16    29    30    1
    17    30    31    1
    18    30    32    1
    19    32    33    1
    20     3     4   ar
    21     4     5   ar
    22     5     6   ar
    23     6     7   ar
    24     7     8   ar
    25     8     9    1
    26     8    10   ar
    27    18    19   ar
    28    19    20   ar
    29    20    21   ar
    30    21    22   ar
    31    22    13   ar
    32    21    16   ar
    33    10     1   ar
    34    33    27    1
    35    10     4   ar
    36     9    11    1
    37     9    12    1
@<TRIPOS>MOLECULE
*****
 33 37 0 0 0
SMALL
GASTEIGER

@<TRIPOS>ATOM
      1 C         141.7831  138.2868  160.4284 C.ar    1  UNL1        0.1065
      2 N         142.7851  137.5372  159.6012 N.ar    1  UNL1       -0.1679
      3 N         142.3180  137.5578  158.1760 N.ar    1  UNL1       -0.2340
      4 C         141.0272  138.3201  158.1222 C.ar    1  UNL1        0.1653
      5 N         140.1102  138.6622  156.9856 N.ar    1  UNL1       -0.2050
      6 C         138.8625  139.4549  157.2410 C.ar    1  UNL1        0.2014
      7 N         138.5320  139.9054  158.6330 N.ar    1  UNL1       -0.2093
      8 C         139.4490  139.5633  159.7697 C.ar    1  UNL1        0.1316
      9 N         139.1185  140.0138  161.1617 N.pl3   1  UNL1       -0.3425
     10 C         140.6966  138.7707  159.5143 C.ar    1  UNL1        0.0860
     11 H         138.2997  140.5341  161.3294 H       1  UNL1        0.1437
     12 H         139.7204  139.7893  161.9077 H       1  UNL1        0.1437
     13 C         142.6714  140.4557  166.8903 C.ar    1  UNL1        0.2248
     14 C         143.2006  141.4945  165.9466 C.ar    1  UNL1        0.0577
     15 C         143.1287  141.2685  164.4654 C.ar    1  UNL1        0.0063
     16 C         142.5277  140.0037  163.9280 C.ar    1  UNL1        0.0180
     17 C         142.4559  139.7776  162.4469 C.ar    1  UNL1        0.0031
     18 C         141.8549  138.5128  161.9095 C.ar    1  UNL1        0.0196
     19 C         141.3257  137.4738  162.8533 C.ar    1  UNL1        0.0031
     20 C         141.3975  137.6998  164.3344 C.ar    1  UNL1        0.0193
     21 C         141.9986  138.9648  164.8718 C.ar    1  UNL1        0.0844
     22 N         142.0704  139.1908  166.3529 N.ar    1  UNL1       -0.2117
     23 O         142.7432  140.6817  168.3714 O.3     1  UNL1       -0.4602
     24 C         142.0118  142.8599  169.5841 C.3     1  UNL1        0.0512
     25 C         143.0726  142.0434  168.9072 C.3     1  UNL1        0.2072
     26 C         143.0185  136.9269  157.0093 C.3     1  UNL1        0.1291
     27 C         142.7229  135.5042  156.6370 C.3     1  UNL1        0.0272
     28 C         141.7065  135.2022  155.5761 C.3     1  UNL1        0.0194
     29 C         141.4110  133.7795  155.2038 C.3     1  UNL1        0.0722
     30 N         142.1319  132.6588  155.8924 N.3     1  UNL1       -0.2715
     31 C         141.8363  131.2361  155.5201 C.3     1  UNL1        0.0896
     32 C         143.1483  132.9608  156.9534 C.3     1  UNL1        0.0722
     33 C         143.4438  134.3835  157.3257 C.3     1  UNL1        0.0194
@<TRIPOS>BOND
     1    24    25    1
     2    25    23    1
     3    23    13    1
     4    13    14   ar
     5    14    15   ar
     6    15    16   ar
     7    16    17   ar
     8    17    18   ar
     9    18     1    1
    10     1     2   ar
    11     2     3   ar
    12     3    26    1
    13    26    27    1
    14    27    28    1
    15    28    29    1
    16    29    30    1
    17    30    31    1
    18    30    32    1
    19    32    33    1
    20     3     4   ar
    21     4     5   ar
    22     5     6   ar
    23     6     7   ar
    24     7     8   ar
    25     8     9    1
    26     8    10   ar
    27    18    19   ar
    28    19    20   ar
    29    20    21   ar
    30    21    22   ar
    31    22    13   ar
    32    21    16   ar
    33    10     1   ar
    34    33    27    1
    35    10     4   ar
    36     9    11    1
    37     9    12    1
@<TRIPOS>MOLECULE
*****
 33 37 0 0 0
SMALL
GASTEIGER

@<TRIPOS>ATOM
      1 C         141.7941  142.0165  162.3349 C.ar    1  UNL1        0.1065
      2 N         140.8657  141.1191  163.0983 N.ar    1  UNL1       -0.1679
      3 N         141.6921  140.2775  164.0250 N.ar    1  UNL1       -0.2340
      4 C         143.1314  140.6547  163.8343 C.ar    1  UNL1        0.1653
      5 N         144.3926  140.1584  164.4769 N.ar    1  UNL1       -0.2050
      6 C         145.7170  140.7369  164.0749 C.ar    1  UNL1        0.2014
      7 N         145.7801  141.8116  163.0304 N.ar    1  UNL1       -0.2093
      8 C         144.5188  142.3079  162.3878 C.ar    1  UNL1        0.1316
      9 N         144.5818  143.3826  161.3433 N.pl3   1  UNL1       -0.3425
     10 C         143.1945  141.7295  162.7898 C.ar    1  UNL1        0.0860
     11 H         145.4510  143.7623  161.0795 H       1  UNL1        0.1437
     12 H         143.7540  143.7083  160.9216 H       1  UNL1        0.1437
     13 C         140.1557  145.6595  156.7408 C.ar    1  UNL1        0.2248
     14 C         140.5239  144.2651  156.3283 C.ar    1  UNL1        0.0577
     15 C         140.9253  143.2577  157.3646 C.ar    1  UNL1        0.0063
     16 C         140.9584  143.6445  158.8135 C.ar    1  UNL1        0.0180
     17 C         141.3597  142.6371  159.8498 C.ar    1  UNL1        0.0031
     18 C         141.3928  143.0239  161.2986 C.ar    1  UNL1        0.0196
     19 C         141.0246  144.4183  161.7112 C.ar    1  UNL1        0.0031
     20 C         140.6232  145.4258  160.6749 C.ar    1  UNL1        0.0193
     21 C         140.5901  145.0388  159.2260 C.ar    1  UNL1        0.0844
     22 N         140.1888  146.0463  158.1897 N.ar    1  UNL1       -0.2117
     23 O         139.7543  146.6669  155.7045 O.3     1  UNL1       -0.4602
     24 C         138.9367  149.0846  155.2185 C.3     1  UNL1        0.0512
     25 C         138.9525  147.8712  156.1003 C.3     1  UNL1        0.2072
     26 C         141.1709  139.2408  164.9755 C.3     1  UNL1        0.1291
     27 C         141.0653  139.5508  166.4393 C.3     1  UNL1        0.0272
     28 C         139.7303  139.8711  167.0436 C.3     1  UNL1        0.0194
     29 C         139.6246  140.1812  168.5074 C.3     1  UNL1        0.0722
     30 N         140.8539  140.1710  169.3669 N.3     1  UNL1       -0.2715
     31 C         140.7482  140.4810  170.8307 C.3     1  UNL1        0.0896
     32 C         142.1889  139.8507  168.7625 C.3     1  UNL1        0.0722
     33 C         142.2945  139.5406  167.2987 C.3     1  UNL1        0.0194
@<TRIPOS>BOND
     1    24    25    1
     2    25    23    1
     3    23    13    1
     4    13    14   ar
     5    14    15   ar
     6    15    16   ar
     7    16    17   ar
     8    17    18   ar
     9    18     1    1
    10     1     2   ar
    11     2     3   ar
    12     3    26    1
    13    26    27    1
    14    27    28    1
    15    28    29    1
    16    29    30    1
    17    30    31    1
    18    30    32    1
    19    32    33    1
    20     3     4   ar
    21     4     5   ar
    22     5     6   ar
    23     6     7   ar
    24     7     8   ar
    25     8     9    1
    26     8    10   ar
    27    18    19   ar
    28    19    20   ar
    29    20    21   ar
    30    21    22   ar
    31    22    13   ar
    32    21    16   ar
    33    10     1   ar
    34    33    27    1
    35    10     4   ar
    36     9    11    1
    37     9    12    1
@<TRIPOS>MOLECULE
*****
 33 37 0 0 0
SMALL
GASTEIGER

@<TRIPOS>ATOM
      1 C         143.5656  140.4612  161.1013 C.ar    1  UNL1        0.1065
      2 N         144.0524  141.7257  160.4578 N.ar    1  UNL1       -0.1679
      3 N         144.0971  141.5039  158.9750 N.ar    1  UNL1       -0.2340
      4 C         143.6379  140.1023  158.7019 C.ar    1  UNL1        0.1653
      5 N         143.4764  139.3295  157.4265 N.ar    1  UNL1       -0.2050
      6 C         142.9864  137.9123  157.4651 C.ar    1  UNL1        0.2014
      7 N         142.6579  137.2678  158.7792 N.ar    1  UNL1       -0.2093
      8 C         142.8194  138.0406  160.0547 C.ar    1  UNL1        0.1316
      9 N         142.4910  137.3961  161.3688 N.pl3   1  UNL1       -0.3425
     10 C         143.3094  139.4578  160.0160 C.ar    1  UNL1        0.0860
     11 H         142.1694  136.4660  161.3941 H       1  UNL1        0.1437
     12 H         142.5970  137.9033  162.2059 H       1  UNL1        0.1437
     13 C         141.4925  139.9746  167.6369 C.ar    1  UNL1        0.2248
     14 C         140.4001  140.5991  166.8205 C.ar    1  UNL1        0.0577
     15 C         140.5962  140.8213  165.3501 C.ar    1  UNL1        0.0063
     16 C         141.8848  140.4190  164.6961 C.ar    1  UNL1        0.0180
     17 C         142.0809  140.6412  163.2257 C.ar    1  UNL1        0.0031
     18 C         143.3695  140.2390  162.5717 C.ar    1  UNL1        0.0196
     19 C         144.4620  139.6144  163.3881 C.ar    1  UNL1        0.0031
     20 C         144.2659  139.3922  164.8586 C.ar    1  UNL1        0.0193
     21 C         142.9772  139.7946  165.5125 C.ar    1  UNL1        0.0844
     22 N         142.7811  139.5724  166.9830 N.ar    1  UNL1       -0.2117
     23 O         141.2964  139.7524  169.1074 O.3     1  UNL1       -0.4602
     24 C         138.9259  140.3324  169.9985 C.3     1  UNL1        0.0512
     25 C         140.3866  140.6545  169.8874 C.3     1  UNL1        0.2072
     26 C         144.5257  142.5075  157.9459 C.3     1  UNL1        0.1291
     27 C         145.8099  142.3110  157.1961 C.3     1  UNL1        0.0272
     28 C         145.8305  141.4773  155.9493 C.3     1  UNL1        0.0194
     29 C         147.1147  141.2809  155.1995 C.3     1  UNL1        0.0722
     30 N         148.3784  141.9182  155.6965 N.3     1  UNL1       -0.2715
     31 C         149.6626  141.7218  154.9467 C.3     1  UNL1        0.0896
     32 C         148.3578  142.7519  156.9433 C.3     1  UNL1        0.0722
     33 C         147.0735  142.9483  157.6931 C.3     1  UNL1        0.0194
@<TRIPOS>BOND
     1    24    25    1
     2    25    23    1
     3    23    13    1
     4    13    14   ar
     5    14    15   ar
     6    15    16   ar
     7    16    17   ar
     8    17    18   ar
     9    18     1    1
    10     1     2   ar
    11     2     3   ar
    12     3    26    1
    13    26    27    1
    14    27    28    1
    15    28    29    1
    16    29    30    1
    17    30    31    1
    18    30    32    1
    19    32    33    1
    20     3     4   ar
    21     4     5   ar
    22     5     6   ar
    23     6     7   ar
    24     7     8   ar
    25     8     9    1
    26     8    10   ar
    27    18    19   ar
    28    19    20   ar
    29    20    21   ar
    30    21    22   ar
    31    22    13   ar
    32    21    16   ar
    33    10     1   ar
    34    33    27    1
    35    10     4   ar
    36     9    11    1
    37     9    12    1
@<TRIPOS>MOLECULE
*****
 33 37 0 0 0
SMALL
GASTEIGER

@<TRIPOS>ATOM
      1 C         143.4249  142.1863  161.2709 C.ar    1  UNL1        0.1065
      2 N         144.0291  141.0932  160.4402 N.ar    1  UNL1       -0.1679
      3 N         143.8163  141.4372  158.9957 N.ar    1  UNL1       -0.2340
      4 C         143.0805  142.7429  158.9337 C.ar    1  UNL1        0.1653
      5 N         142.5996  143.5700  157.7785 N.ar    1  UNL1       -0.2050
      6 C         141.8767  144.8603  158.0295 C.ar    1  UNL1        0.2014
      7 N         141.6348  145.3233  159.4356 N.ar    1  UNL1       -0.2093
      8 C         142.1158  144.4961  160.5907 C.ar    1  UNL1        0.1316
      9 N         141.8739  144.9591  161.9969 N.pl3   1  UNL1       -0.3425
     10 C         142.8386  143.2059  160.3398 C.ar    1  UNL1        0.0860
     11 H         141.3994  145.8058  162.1616 H       1  UNL1        0.1437
     12 H         142.1895  144.4161  162.7550 H       1  UNL1        0.1437
     13 C         142.2820  141.7375  168.0342 C.ar    1  UNL1        0.2248
     14 C         141.2157  140.9758  167.3044 C.ar    1  UNL1        0.0577
     15 C         141.2310  140.9132  165.8058 C.ar    1  UNL1        0.0063
     16 C         142.3126  141.6123  165.0370 C.ar    1  UNL1        0.0180
     17 C         142.3279  141.5497  163.5384 C.ar    1  UNL1        0.0031
     18 C         143.4096  142.2489  162.7695 C.ar    1  UNL1        0.0196
     19 C         144.4760  143.0107  163.4993 C.ar    1  UNL1        0.0031
     20 C         144.4607  143.0733  164.9979 C.ar    1  UNL1        0.0193
     21 C         143.3790  142.3741  165.7667 C.ar    1  UNL1        0.0844
     22 N         143.3637  142.4367  167.2654 N.ar    1  UNL1       -0.2117
     23 O         142.2667  141.8001  169.5328 O.3     1  UNL1       -0.4602
     24 C         140.5311  143.7275  169.6833 C.3     1  UNL1        0.0512
     25 C         141.7364  143.0193  170.2272 C.3     1  UNL1        0.2072
     26 C         144.2611  140.6191  157.8198 C.3     1  UNL1        0.1291
     27 C         145.2984  141.1588  156.8802 C.3     1  UNL1        0.0272
     28 C         146.1707  142.3034  157.3032 C.3     1  UNL1        0.0194
     29 C         147.2080  142.8430  156.3635 C.3     1  UNL1        0.0722
     30 N         147.3729  142.2380  155.0009 N.3     1  UNL1       -0.2715
     31 C         148.4102  142.7776  154.0613 C.3     1  UNL1        0.0896
     32 C         146.5006  141.0934  154.5779 C.3     1  UNL1        0.0722
     33 C         145.4633  140.5538  155.5176 C.3     1  UNL1        0.0194
@<TRIPOS>BOND
     1    24    25    1
     2    25    23    1
     3    23    13    1
     4    13    14   ar
     5    14    15   ar
     6    15    16   ar
     7    16    17   ar
     8    17    18   ar
     9    18     1    1
    10     1     2   ar
    11     2     3   ar
    12     3    26    1
    13    26    27    1
    14    27    28    1
    15    28    29    1
    16    29    30    1
    17    30    31    1
    18    30    32    1
    19    32    33    1
    20     3     4   ar
    21     4     5   ar
    22     5     6   ar
    23     6     7   ar
    24     7     8   ar
    25     8     9    1
    26     8    10   ar
    27    18    19   ar
    28    19    20   ar
    29    20    21   ar
    30    21    22   ar
    31    22    13   ar
    32    21    16   ar
    33    10     1   ar
    34    33    27    1
    35    10     4   ar
    36     9    11    1
    37     9    12    1
@<TRIPOS>MOLECULE
*****
 33 37 0 0 0
SMALL
GASTEIGER

@<TRIPOS>ATOM
      1 C         140.2075  140.3152  162.5025 C.ar    1  UNL1        0.1065
      2 N         140.1069  139.6139  163.8246 N.ar    1  UNL1       -0.1679
      3 N         139.2401  140.4437  164.7248 N.ar    1  UNL1       -0.2340
      4 C         138.8050  141.6579  163.9589 C.ar    1  UNL1        0.1653
      5 N         137.9417  142.8255  164.3347 N.ar    1  UNL1       -0.2050
      6 C         137.6762  143.9138  163.3370 C.ar    1  UNL1        0.2014
      7 N         138.2741  143.8344  161.9636 N.ar    1  UNL1       -0.2093
      8 C         139.1374  142.6667  161.5878 C.ar    1  UNL1        0.1316
      9 N         139.7353  142.5873  160.2144 N.pl3   1  UNL1       -0.3425
     10 C         139.4029  141.5785  162.5855 C.ar    1  UNL1        0.0860
     11 H         139.5611  143.3016  159.5597 H       1  UNL1        0.1437
     12 H         140.3020  141.8209  159.9678 H       1  UNL1        0.1437
     13 C         142.5699  137.7415  156.5826 C.ar    1  UNL1        0.2248
     14 C         141.0823  137.5578  156.6390 C.ar    1  UNL1        0.0577
     15 C         140.3123  138.0358  157.8342 C.ar    1  UNL1        0.0063
     16 C         141.0299  138.6975  158.9731 C.ar    1  UNL1        0.0180
     17 C         140.2599  139.1755  160.1684 C.ar    1  UNL1        0.0031
     18 C         140.9775  139.8372  161.3073 C.ar    1  UNL1        0.0196
     19 C         142.4652  140.0210  161.2509 C.ar    1  UNL1        0.0031
     20 C         143.2352  139.5430  160.0557 C.ar    1  UNL1        0.0193
     21 C         142.5175  138.8812  158.9168 C.ar    1  UNL1        0.0844
     22 N         143.2875  138.4032  157.7215 N.ar    1  UNL1       -0.2117
     23 O         143.3399  137.2635  155.3874 O.3     1  UNL1       -0.4602
     24 C         143.6895  134.8993  156.4064 C.3     1  UNL1        0.0512
     25 C         144.1146  135.9810  155.4581 C.3     1  UNL1        0.2072
     26 C         138.8729  140.1168  166.1418 C.3     1  UNL1        0.1291
     27 C         139.6941  140.6595  167.2737 C.3     1  UNL1        0.0272
     28 C         139.6146  140.0240  168.6301 C.3     1  UNL1        0.0194
     29 C         140.4358  140.5667  169.7619 C.3     1  UNL1        0.0722
     30 N         141.3366  141.7449  169.5374 N.3     1  UNL1       -0.2715
     31 C         142.1579  142.2876  170.6692 C.3     1  UNL1        0.0896
     32 C         141.4161  142.3804  168.1810 C.3     1  UNL1        0.0722
     33 C         140.5949  141.8377  167.0491 C.3     1  UNL1        0.0194
@<TRIPOS>BOND
     1    24    25    1
     2    25    23    1
     3    23    13    1
     4    13    14   ar
     5    14    15   ar
     6    15    16   ar
     7    16    17   ar
     8    17    18   ar
     9    18     1    1
    10     1     2   ar
    11     2     3   ar
    12     3    26    1
    13    26    27    1
    14    27    28    1
    15    28    29    1
    16    29    30    1
    17    30    31    1
    18    30    32    1
    19    32    33    1
    20     3     4   ar
    21     4     5   ar
    22     5     6   ar
    23     6     7   ar
    24     7     8   ar
    25     8     9    1
    26     8    10   ar
    27    18    19   ar
    28    19    20   ar
    29    20    21   ar
    30    21    22   ar
    31    22    13   ar
    32    21    16   ar
    33    10     1   ar
    34    33    27    1
    35    10     4   ar
    36     9    11    1
    37     9    12    1
