@<TRIPOS>MOLECULE
*****
 35 37 0 0 0
SMALL
GASTEIGER

@<TRIPOS>ATOM
      1 N         138.9532  139.8448  159.7944 N.3     1  UNL1       -0.2705
      2 C         138.5759  141.1552  160.4195 C.3     1  UNL1        0.0739
      3 C         138.5235  141.2863  161.9128 C.3     1  UNL1        0.0394
      4 C         138.8484  140.1072  162.7811 C.3     1  UNL1        0.1017
      5 C         139.2257  138.7968  162.1561 C.3     1  UNL1        0.1490
      6 C         139.2781  138.6656  160.6627 C.3     1  UNL1        0.1037
      7 N         138.7960  140.2384  164.2745 N.am    1  UNL1       -0.2999
      8 C         139.9735  140.7923  165.0205 C.2     1  UNL1        0.2488
      9 O         141.2035  141.2149  164.2732 O.2     1  UNL1       -0.2700
     10 H         137.9887  139.9610  164.7650 H       1  UNL1        0.1498
     11 C         139.9211  140.9234  166.5138 C.ar    1  UNL1        0.0882
     12 C         140.5302  142.1195  167.1835 C.ar    1  UNL1        0.0202
     13 C         140.4777  142.2507  168.6768 C.ar    1  UNL1        0.0709
     14 CL        141.0868  143.4468  169.3464 Cl      1  UNL1       -0.0810
     15 C         139.8162  141.1859  169.5005 C.ar    1  UNL1        0.0553
     16 N         139.7637  141.3171  170.9938 N.pl3   1  UNL1       -0.3563
     17 C         139.2071  139.9898  168.8308 C.ar    1  UNL1        0.0520
     18 C         139.2595  139.8586  167.3375 C.ar    1  UNL1        0.1443
     19 H         140.1635  142.1021  171.4333 H       1  UNL1        0.1424
     20 H         139.3295  140.6181  171.5344 H       1  UNL1        0.1424
     21 O         138.6504  138.6625  166.6678 O.3     1  UNL1       -0.4712
     22 C         137.3597  138.0936  167.1781 C.3     1  UNL1        0.2525
     23 O         139.5506  137.6177  163.0244 O.3     1  UNL1       -0.3505
     24 C         140.9733  137.3398  163.4103 C.3     1  UNL1        0.1741
     25 C         139.0056  139.7136  158.3011 C.3     1  UNL1        0.0722
     26 C         143.6403  136.9343  155.6944 C.2     1  UNL1        0.4050
     27 O         144.9735  137.6165  155.6111 O.2     1  UNL1       -0.2262
     28 N         142.4816  137.6291  156.3461 N.am    1  UNL1       -0.2460
     29 C         141.1484  136.9469  156.4293 C.3     1  UNL1        0.0968
     30 C         139.9897  137.6417  157.0810 C.3     1  UNL1        0.0231
     31 C         140.1642  139.0188  157.6494 C.3     1  UNL1        0.0194
     32 C         141.4975  139.7010  157.5661 C.3     1  UNL1        0.0231
     33 C         142.6561  139.0062  156.9145 C.3     1  UNL1        0.0968
     34 C         143.7217  134.3537  155.9839 C.3     1  UNL1        0.2573
     35 O         143.4657  135.5572  155.1260 O.3     1  UNL1       -0.4304
@<TRIPOS>BOND
     1    34    35    1
     2    35    26    1
     3    26    27    2
     4    26    28   am
     5    28    29    1
     6    29    30    1
     7    30    31    1
     8    31    25    1
     9    25     1    1
    10     1     2    1
    11     2     3    1
    12     3     4    1
    13     4     7    1
    14     7     8   am
    15     8     9    2
    16     8    11    1
    17    11    12   ar
    18    12    13   ar
    19    13    14    1
    20    13    15   ar
    21    15    16    1
    22    15    17   ar
    23    17    18   ar
    24    18    21    1
    25    21    22    1
    26     4     5    1
    27     5    23    1
    28    23    24    1
    29     5     6    1
    30    31    32    1
    31    32    33    1
    32    33    28    1
    33     6     1    1
    34    18    11   ar
    35     7    10    1
    36    16    19    1
    37    16    20    1
@<TRIPOS>MOLECULE
*****
 35 37 0 0 0
SMALL
GASTEIGER

@<TRIPOS>ATOM
      1 N         141.3162  138.2971  157.8746 N.3     1  UNL1       -0.2705
      2 C         139.8857  138.3065  158.3261 C.3     1  UNL1        0.0739
      3 C         139.5471  138.6864  159.7370 C.3     1  UNL1        0.0394
      4 C         140.6388  139.0570  160.6966 C.3     1  UNL1        0.1017
      5 C         142.0692  139.0476  160.2452 C.3     1  UNL1        0.1490
      6 C         142.4079  138.6677  158.8341 C.3     1  UNL1        0.1037
      7 N         140.3001  139.4369  162.1077 N.am    1  UNL1       -0.2999
      8 C         140.2886  138.3918  163.1836 C.2     1  UNL1        0.2488
      9 O         140.6159  136.9668  162.8485 O.2     1  UNL1       -0.2700
     10 H         140.0853  140.3722  162.3276 H       1  UNL1        0.1498
     11 C         139.9499  138.7718  164.5946 C.ar    1  UNL1        0.0882
     12 C         138.7138  138.2225  165.2431 C.ar    1  UNL1        0.0202
     13 C         138.3751  138.6025  166.6540 C.ar    1  UNL1        0.0709
     14 CL        137.1391  138.0533  167.3025 Cl      1  UNL1       -0.0810
     15 C         139.2725  139.5316  167.4166 C.ar    1  UNL1        0.0553
     16 N         138.9338  139.9116  168.8275 N.pl3   1  UNL1       -0.3563
     17 C         140.5085  140.0809  166.7681 C.ar    1  UNL1        0.0520
     18 C         140.8473  139.7009  165.3571 C.ar    1  UNL1        0.1443
     19 H         138.1225  139.5511  169.2532 H       1  UNL1        0.1424
     20 H         139.5227  140.5214  169.3280 H       1  UNL1        0.1424
     21 O         142.0833  140.2501  164.7087 O.3     1  UNL1       -0.4712
     22 C         143.2519  140.6649  165.5526 C.3     1  UNL1        0.2525
     23 O         143.1610  139.4181  161.2048 O.3     1  UNL1       -0.3505
     24 C         143.8397  138.3543  162.0157 C.3     1  UNL1        0.1741
     25 C         141.6548  137.9172  156.4636 C.3     1  UNL1        0.0722
     26 C         143.1164  132.2478  155.1516 C.2     1  UNL1        0.4050
     27 O         142.1611  131.3864  154.3800 O.2     1  UNL1       -0.2262
     28 N         142.7510  133.6652  155.4796 N.am    1  UNL1       -0.2460
     29 C         143.7062  134.5266  156.2512 C.3     1  UNL1        0.0968
     30 C         143.3408  135.9439  156.5792 C.3     1  UNL1        0.0231
     31 C         142.0202  136.4999  156.1356 C.3     1  UNL1        0.0194
     32 C         141.0650  135.6384  155.3640 C.3     1  UNL1        0.0231
     33 C         141.4303  134.2211  155.0360 C.3     1  UNL1        0.0968
     34 C         144.8076  130.2784  155.2565 C.3     1  UNL1        0.2573
     35 O         144.4370  131.6919  155.5952 O.3     1  UNL1       -0.4304
@<TRIPOS>BOND
     1    34    35    1
     2    35    26    1
     3    26    27    2
     4    26    28   am
     5    28    29    1
     6    29    30    1
     7    30    31    1
     8    31    25    1
     9    25     1    1
    10     1     2    1
    11     2     3    1
    12     3     4    1
    13     4     7    1
    14     7     8   am
    15     8     9    2
    16     8    11    1
    17    11    12   ar
    18    12    13   ar
    19    13    14    1
    20    13    15   ar
    21    15    16    1
    22    15    17   ar
    23    17    18   ar
    24    18    21    1
    25    21    22    1
    26     4     5    1
    27     5    23    1
    28    23    24    1
    29     5     6    1
    30    31    32    1
    31    32    33    1
    32    33    28    1
    33     6     1    1
    34    18    11   ar
    35     7    10    1
    36    16    19    1
    37    16    20    1
@<TRIPOS>MOLECULE
*****
 35 37 0 0 0
SMALL
GASTEIGER

@<TRIPOS>ATOM
      1 N         142.6375  140.7118  160.4265 N.3     1  UNL1       -0.2705
      2 C         141.1968  140.6719  160.8424 C.3     1  UNL1        0.0739
      3 C         140.8332  140.7504  162.2955 C.3     1  UNL1        0.0394
      4 C         141.9103  140.8689  163.3328 C.3     1  UNL1        0.1017
      5 C         143.3509  140.9088  162.9170 C.3     1  UNL1        0.1490
      6 C         143.7146  140.8302  161.4638 C.3     1  UNL1        0.1037
      7 N         141.5466  140.9474  164.7860 N.am    1  UNL1       -0.2999
      8 C         141.7579  139.7596  165.6772 C.2     1  UNL1        0.2488
      9 O         142.3328  138.4932  165.1154 O.2     1  UNL1       -0.2700
     10 H         141.1693  141.7786  165.1547 H       1  UNL1        0.1498
     11 C         141.3942  139.8382  167.1303 C.ar    1  UNL1        0.0882
     12 C         142.4581  139.6972  168.1784 C.ar    1  UNL1        0.0202
     13 C         142.0944  139.7758  169.6315 C.ar    1  UNL1        0.0709
     14 CL        143.1582  139.6347  170.6795 Cl      1  UNL1       -0.0810
     15 C         140.6670  139.9954  170.0366 C.ar    1  UNL1        0.0553
     16 N         140.3033  140.0740  171.4897 N.pl3   1  UNL1       -0.3563
     17 C         139.6031  140.1365  168.9886 C.ar    1  UNL1        0.0520
     18 C         139.9668  140.0579  167.5354 C.ar    1  UNL1        0.1443
     19 H         141.0015  139.9815  172.1776 H       1  UNL1        0.1424
     20 H         139.3664  140.2182  171.7556 H       1  UNL1        0.1424
     21 O         138.9029  140.1989  166.4874 O.3     1  UNL1       -0.4712
     22 C         138.0802  139.0096  166.0890 C.3     1  UNL1        0.2525
     23 O         144.4279  141.0272  163.9542 O.3     1  UNL1       -0.3505
     24 C         145.7537  141.6292  163.5935 C.3     1  UNL1        0.1741
     25 C         143.0011  140.6332  158.9734 C.3     1  UNL1        0.0722
     26 C         143.0818  135.3217  156.1839 C.2     1  UNL1        0.4050
     27 O         143.3131  135.2555  154.7034 O.2     1  UNL1       -0.2262
     28 N         143.0616  136.6495  156.8813 N.am    1  UNL1       -0.2460
     29 C         142.8303  136.7157  158.3618 C.3     1  UNL1        0.0968
     30 C         142.8102  138.0436  159.0592 C.3     1  UNL1        0.0231
     31 C         143.0213  139.3053  158.2760 C.3     1  UNL1        0.0194
     32 C         143.2526  139.2392  156.7955 C.3     1  UNL1        0.0231
     33 C         143.2728  137.9113  156.0981 C.3     1  UNL1        0.0968
     34 C         144.0452  133.3407  157.5614 C.3     1  UNL1        0.2573
     35 O         142.8707  134.0599  156.9671 O.3     1  UNL1       -0.4304
@<TRIPOS>BOND
     1    34    35    1
     2    35    26    1
     3    26    27    2
     4    26    28   am
     5    28    29    1
     6    29    30    1
     7    30    31    1
     8    31    25    1
     9    25     1    1
    10     1     2    1
    11     2     3    1
    12     3     4    1
    13     4     7    1
    14     7     8   am
    15     8     9    2
    16     8    11    1
    17    11    12   ar
    18    12    13   ar
    19    13    14    1
    20    13    15   ar
    21    15    16    1
    22    15    17   ar
    23    17    18   ar
    24    18    21    1
    25    21    22    1
    26     4     5    1
    27     5    23    1
    28    23    24    1
    29     5     6    1
    30    31    32    1
    31    32    33    1
    32    33    28    1
    33     6     1    1
    34    18    11   ar
    35     7    10    1
    36    16    19    1
    37    16    20    1
@<TRIPOS>MOLECULE
*****
 35 37 0 0 0
SMALL
GASTEIGER

@<TRIPOS>ATOM
      1 N         138.5370  138.7916  163.4018 N.3     1  UNL1       -0.2705
      2 C         138.6175  138.0918  162.0775 C.3     1  UNL1        0.0739
      3 C         138.2733  138.8292  160.8174 C.3     1  UNL1        0.0394
      4 C         137.8486  140.2664  160.8817 C.3     1  UNL1        0.1017
      5 C         137.7681  140.9662  162.2059 C.3     1  UNL1        0.1490
      6 C         138.1123  140.2288  163.4661 C.3     1  UNL1        0.1037
      7 N         137.5045  141.0038  159.6215 N.am    1  UNL1       -0.2999
      8 C         138.5872  141.6592  158.8165 C.2     1  UNL1        0.2488
      9 O         140.0142  141.5773  159.2716 O.2     1  UNL1       -0.2700
     10 H         136.5679  141.0576  159.3228 H       1  UNL1        0.1498
     11 C         138.2430  142.3966  157.5565 C.ar    1  UNL1        0.0882
     12 C         139.0373  143.6034  157.1528 C.ar    1  UNL1        0.0202
     13 C         138.6931  144.3407  155.8928 C.ar    1  UNL1        0.0709
     14 CL        139.4874  145.5474  155.4892 Cl      1  UNL1       -0.0810
     15 C         137.5546  143.8713  155.0363 C.ar    1  UNL1        0.0553
     16 N         137.2104  144.6087  153.7762 N.pl3   1  UNL1       -0.3563
     17 C         136.7604  142.6646  155.4399 C.ar    1  UNL1        0.0520
     18 C         137.1045  141.9272  156.7000 C.ar    1  UNL1        0.1443
     19 H         137.7317  145.4007  153.5113 H       1  UNL1        0.1424
     20 H         136.4632  144.3006  153.2141 H       1  UNL1        0.1424
     21 O         136.3103  140.7205  157.1036 O.3     1  UNL1       -0.4712
     22 C         135.0143  140.4108  156.4147 C.3     1  UNL1        0.2525
     23 O         137.3435  142.4034  162.2702 O.3     1  UNL1       -0.3505
     24 C         138.3687  143.4937  162.1680 C.3     1  UNL1        0.1741
     25 C         138.8811  138.0542  164.6619 C.3     1  UNL1        0.0722
     26 C         141.3966  140.9787  169.2576 C.2     1  UNL1        0.4050
     27 O         142.8668  141.2753  169.2433 O.2     1  UNL1       -0.2262
     28 N         140.7677  140.2476  168.1086 N.am    1  UNL1       -0.2460
     29 C         139.2974  139.9510  168.1230 C.3     1  UNL1        0.0968
     30 C         138.6686  139.2199  166.9740 C.3     1  UNL1        0.0231
     31 C         139.5100  138.7854  165.8108 C.3     1  UNL1        0.0194
     32 C         140.9803  139.0820  165.7965 C.3     1  UNL1        0.0231
     33 C         141.6091  139.8131  166.9454 C.3     1  UNL1        0.0968
     34 C         140.0207  142.8136  170.4783 C.3     1  UNL1        0.2573
     35 O         140.5551  141.4132  170.4208 O.3     1  UNL1       -0.4304
@<TRIPOS>BOND
     1    34    35    1
     2    35    26    1
     3    26    27    2
     4    26    28   am
     5    28    29    1
     6    29    30    1
     7    30    31    1
     8    31    25    1
     9    25     1    1
    10     1     2    1
    11     2     3    1
    12     3     4    1
    13     4     7    1
    14     7     8   am
    15     8     9    2
    16     8    11    1
    17    11    12   ar
    18    12    13   ar
    19    13    14    1
    20    13    15   ar
    21    15    16    1
    22    15    17   ar
    23    17    18   ar
    24    18    21    1
    25    21    22    1
    26     4     5    1
    27     5    23    1
    28    23    24    1
    29     5     6    1
    30    31    32    1
    31    32    33    1
    32    33    28    1
    33     6     1    1
    34    18    11   ar
    35     7    10    1
    36    16    19    1
    37    16    20    1
@<TRIPOS>MOLECULE
*****
 35 37 0 0 0
SMALL
GASTEIGER

@<TRIPOS>ATOM
      1 N         142.2131  138.0793  159.3200 N.3     1  UNL1       -0.2705
      2 C         143.1780  137.7063  160.4062 C.3     1  UNL1        0.0739
      3 C         142.7691  137.8213  161.8447 C.3     1  UNL1        0.0394
      4 C         141.3952  138.3093  162.1972 C.3     1  UNL1        0.1017
      5 C         140.4302  138.6824  161.1110 C.3     1  UNL1        0.1490
      6 C         140.8392  138.5674  159.6724 C.3     1  UNL1        0.1037
      7 N         140.9862  138.4243  163.6358 N.am    1  UNL1       -0.2999
      8 C         141.4835  139.5692  164.4676 C.2     1  UNL1        0.2488
      9 O         142.3897  140.5991  163.8609 O.2     1  UNL1       -0.2700
     10 H         140.3915  137.7484  164.0340 H       1  UNL1        0.1498
     11 C         141.0745  139.6841  165.9062 C.ar    1  UNL1        0.0882
     12 C         142.1190  139.8185  166.9744 C.ar    1  UNL1        0.0202
     13 C         141.7101  139.9335  168.4130 C.ar    1  UNL1        0.0709
     14 CL        142.7545  140.0678  169.4811 Cl      1  UNL1       -0.0810
     15 C         140.2567  139.9140  168.7834 C.ar    1  UNL1        0.0553
     16 N         139.8477  140.0290  170.2220 N.pl3   1  UNL1       -0.3563
     17 C         139.2122  139.7797  167.7153 C.ar    1  UNL1        0.0520
     18 C         139.6211  139.6647  166.2766 C.ar    1  UNL1        0.1443
     19 H         140.5332  140.1172  170.9231 H       1  UNL1        0.1424
     20 H         138.8938  140.0163  170.4651 H       1  UNL1        0.1424
     21 O         138.5766  139.5303  165.2085 O.3     1  UNL1       -0.4712
     22 C         138.0577  140.7516  164.5090 C.3     1  UNL1        0.2525
     23 O         139.0563  139.1704  161.4635 O.3     1  UNL1       -0.3505
     24 C         137.9591  138.1860  161.7412 C.3     1  UNL1        0.1741
     25 C         142.6220  137.9643  157.8814 C.3     1  UNL1        0.0722
     26 C         141.8621  132.7838  154.9514 C.2     1  UNL1        0.4050
     27 O         142.6723  131.5805  155.3328 O.2     1  UNL1       -0.2262
     28 N         142.0521  134.0789  155.6839 N.am    1  UNL1       -0.2460
     29 C         141.2418  135.2822  155.3024 C.3     1  UNL1        0.0968
     30 C         141.4318  136.5773  156.0349 C.3     1  UNL1        0.0231
     31 C         142.4320  136.6692  157.1489 C.3     1  UNL1        0.0194
     32 C         143.2423  135.4659  157.5304 C.3     1  UNL1        0.0231
     33 C         143.0523  134.1708  156.7979 C.3     1  UNL1        0.0968
     34 C         141.3094  132.8396  152.4134 C.3     1  UNL1        0.2573
     35 O         140.8618  132.6919  153.8374 O.3     1  UNL1       -0.4304
@<TRIPOS>BOND
     1    34    35    1
     2    35    26    1
     3    26    27    2
     4    26    28   am
     5    28    29    1
     6    29    30    1
     7    30    31    1
     8    31    25    1
     9    25     1    1
    10     1     2    1
    11     2     3    1
    12     3     4    1
    13     4     7    1
    14     7     8   am
    15     8     9    2
    16     8    11    1
    17    11    12   ar
    18    12    13   ar
    19    13    14    1
    20    13    15   ar
    21    15    16    1
    22    15    17   ar
    23    17    18   ar
    24    18    21    1
    25    21    22    1
    26     4     5    1
    27     5    23    1
    28    23    24    1
    29     5     6    1
    30    31    32    1
    31    32    33    1
    32    33    28    1
    33     6     1    1
    34    18    11   ar
    35     7    10    1
    36    16    19    1
    37    16    20    1
@<TRIPOS>MOLECULE
*****
 35 37 0 0 0
SMALL
GASTEIGER

@<TRIPOS>ATOM
      1 N         138.5283  139.9103  164.4015 N.3     1  UNL1       -0.2705
      2 C         138.8595  139.1425  163.1562 C.3     1  UNL1        0.0739
      3 C         138.7504  139.8053  161.8150 C.3     1  UNL1        0.0394
      4 C         138.3101  141.2361  161.7191 C.3     1  UNL1        0.1017
      5 C         137.9790  142.0039  162.9644 C.3     1  UNL1        0.1490
      6 C         138.0880  141.3411  164.3056 C.3     1  UNL1        0.1037
      7 N         138.2010  141.8989  160.3779 N.am    1  UNL1       -0.2999
      8 C         139.4024  142.5568  159.7665 C.2     1  UNL1        0.2488
      9 O         140.7129  142.5518  160.4962 O.2     1  UNL1       -0.2700
     10 H         137.3409  141.9022  159.8989 H       1  UNL1        0.1498
     11 C         139.2933  143.2196  158.4254 C.ar    1  UNL1        0.0882
     12 C         140.0230  144.5033  158.1616 C.ar    1  UNL1        0.0202
     13 C         139.9139  145.1661  156.8204 C.ar    1  UNL1        0.0709
     14 CL        140.6436  146.4499  156.5567 Cl      1  UNL1       -0.0810
     15 C         139.0750  144.5452  155.7430 C.ar    1  UNL1        0.0553
     16 N         138.9659  145.2081  154.4018 N.pl3   1  UNL1       -0.3563
     17 C         138.3453  143.2615  156.0067 C.ar    1  UNL1        0.0520
     18 C         138.4545  142.5987  157.3479 C.ar    1  UNL1        0.1443
     19 H         139.4448  146.0506  154.2287 H       1  UNL1        0.1424
     20 H         138.4153  144.8005  153.6947 H       1  UNL1        0.1424
     21 O         137.7248  141.3150  157.6117 O.3     1  UNL1       -0.4712
     22 C         136.4747  140.9923  156.8480 C.3     1  UNL1        0.2525
     23 O         137.5387  143.4346  162.8685 O.3     1  UNL1       -0.3505
     24 C         138.4616  144.5341  163.3038 C.3     1  UNL1        0.1741
     25 C         138.6374  139.2475  165.7426 C.3     1  UNL1        0.0722
     26 C         141.2437  142.1330  170.3122 C.2     1  UNL1        0.4050
     27 O         140.7294  141.9456  171.7087 O.2     1  UNL1       -0.2262
     28 N         140.5922  141.4116  169.1698 N.am    1  UNL1       -0.2460
     29 C         141.1065  141.5990  167.7733 C.3     1  UNL1        0.0968
     30 C         140.4550  140.8777  166.6309 C.3     1  UNL1        0.0231
     31 C         139.2890  139.9689  166.8850 C.3     1  UNL1        0.0194
     32 C         138.7746  139.7815  168.2815 C.3     1  UNL1        0.0231
     33 C         139.4262  140.5028  169.4239 C.3     1  UNL1        0.0968
     34 C         143.7903  142.4709  169.9237 C.3     1  UNL1        0.2573
     35 O         142.4097  143.0418  170.0581 O.3     1  UNL1       -0.4304
@<TRIPOS>BOND
     1    34    35    1
     2    35    26    1
     3    26    27    2
     4    26    28   am
     5    28    29    1
     6    29    30    1
     7    30    31    1
     8    31    25    1
     9    25     1    1
    10     1     2    1
    11     2     3    1
    12     3     4    1
    13     4     7    1
    14     7     8   am
    15     8     9    2
    16     8    11    1
    17    11    12   ar
    18    12    13   ar
    19    13    14    1
    20    13    15   ar
    21    15    16    1
    22    15    17   ar
    23    17    18   ar
    24    18    21    1
    25    21    22    1
    26     4     5    1
    27     5    23    1
    28    23    24    1
    29     5     6    1
    30    31    32    1
    31    32    33    1
    32    33    28    1
    33     6     1    1
    34    18    11   ar
    35     7    10    1
    36    16    19    1
    37    16    20    1
@<TRIPOS>MOLECULE
*****
 35 37 0 0 0
SMALL
GASTEIGER

@<TRIPOS>ATOM
      1 N         138.9355  139.7553  164.6750 N.3     1  UNL1       -0.2705
      2 C         139.8641  139.1140  163.6868 C.3     1  UNL1        0.0739
      3 C         139.9746  139.6637  162.2956 C.3     1  UNL1        0.0394
      4 C         139.1565  140.8546  161.8924 C.3     1  UNL1        0.1017
      5 C         138.2279  141.4958  162.8805 C.3     1  UNL1        0.1490
      6 C         138.1174  140.9462  164.2719 C.3     1  UNL1        0.1037
      7 N         139.2671  141.4042  160.5011 N.am    1  UNL1       -0.2999
      8 C         138.3835  140.8720  159.4120 C.2     1  UNL1        0.2488
      9 O         137.3894  139.7902  159.7143 O.2     1  UNL1       -0.2700
     10 H         139.9196  142.1142  160.3027 H       1  UNL1        0.1498
     11 C         138.4941  141.4216  158.0208 C.ar    1  UNL1        0.0882
     12 C         138.2261  140.5353  156.8407 C.ar    1  UNL1        0.0202
     13 C         138.3367  141.0849  155.4494 C.ar    1  UNL1        0.0709
     14 CL        138.0687  140.1985  154.2694 Cl      1  UNL1       -0.0810
     15 C         138.7153  142.5209  155.2382 C.ar    1  UNL1        0.0553
     16 N         138.8259  143.0705  153.8469 N.pl3   1  UNL1       -0.3563
     17 C         138.9833  143.4072  156.4182 C.ar    1  UNL1        0.0520
     18 C         138.8727  142.8576  157.8096 C.ar    1  UNL1        0.1443
     19 H         138.6500  142.4888  153.0724 H       1  UNL1        0.1424
     20 H         139.0744  144.0130  153.7083 H       1  UNL1        0.1424
     21 O         139.1408  143.7440  158.9896 O.3     1  UNL1       -0.4712
     22 C         140.1766  144.8248  158.8958 C.3     1  UNL1        0.2525
     23 O         137.4099  142.6867  162.4774 O.3     1  UNL1       -0.3505
     24 C         137.7401  144.0436  163.0251 C.3     1  UNL1        0.1741
     25 C         138.8249  139.2057  166.0663 C.3     1  UNL1        0.0722
     26 C         140.9088  142.3721  170.7172 C.2     1  UNL1        0.4050
     27 O         140.3462  142.1478  172.0895 O.2     1  UNL1       -0.2262
     28 N         140.3878  141.5805  169.5545 N.am    1  UNL1       -0.2460
     29 C         140.9504  141.8048  168.1822 C.3     1  UNL1        0.0968
     30 C         140.4294  141.0131  167.0195 C.3     1  UNL1        0.0231
     31 C         139.3459  139.9973  167.2290 C.3     1  UNL1        0.0194
     32 C         138.7833  139.7730  168.6013 C.3     1  UNL1        0.0231
     33 C         139.3043  140.5646  169.7640 C.3     1  UNL1        0.0968
     34 C         143.4162  142.9439  170.3489 C.3     1  UNL1        0.2573
     35 O         141.9923  143.3880  170.5077 O.3     1  UNL1       -0.4304
@<TRIPOS>BOND
     1    34    35    1
     2    35    26    1
     3    26    27    2
     4    26    28   am
     5    28    29    1
     6    29    30    1
     7    30    31    1
     8    31    25    1
     9    25     1    1
    10     1     2    1
    11     2     3    1
    12     3     4    1
    13     4     7    1
    14     7     8   am
    15     8     9    2
    16     8    11    1
    17    11    12   ar
    18    12    13   ar
    19    13    14    1
    20    13    15   ar
    21    15    16    1
    22    15    17   ar
    23    17    18   ar
    24    18    21    1
    25    21    22    1
    26     4     5    1
    27     5    23    1
    28    23    24    1
    29     5     6    1
    30    31    32    1
    31    32    33    1
    32    33    28    1
    33     6     1    1
    34    18    11   ar
    35     7    10    1
    36    16    19    1
    37    16    20    1
@<TRIPOS>MOLECULE
*****
 35 37 0 0 0
SMALL
GASTEIGER

@<TRIPOS>ATOM
      1 N         141.5660  138.0596  157.8605 N.3     1  UNL1       -0.2705
      2 C         142.6698  138.2167  158.8641 C.3     1  UNL1        0.0739
      3 C         142.3523  138.6386  160.2681 C.3     1  UNL1        0.0394
      4 C         140.9312  138.9033  160.6685 C.3     1  UNL1        0.1017
      5 C         139.8275  138.7462  159.6650 C.3     1  UNL1        0.1490
      6 C         140.1449  138.3243  158.2609 C.3     1  UNL1        0.1037
      7 N         140.6138  139.3252  162.0726 N.am    1  UNL1       -0.2999
      8 C         140.4984  138.2955  163.1572 C.2     1  UNL1        0.2488
      9 O         140.7003  136.8439  162.8377 O.2     1  UNL1       -0.2700
     10 H         140.4813  140.2780  162.2822 H       1  UNL1        0.1498
     11 C         140.1810  138.7174  164.5611 C.ar    1  UNL1        0.0882
     12 C         138.8964  138.2832  165.2025 C.ar    1  UNL1        0.0202
     13 C         138.5790  138.7051  166.6065 C.ar    1  UNL1        0.0709
     14 CL        137.2945  138.2709  167.2479 Cl      1  UNL1       -0.0810
     15 C         139.5462  139.5613  167.3692 C.ar    1  UNL1        0.0553
     16 N         139.2288  139.9832  168.7731 N.pl3   1  UNL1       -0.3563
     17 C         140.8307  139.9955  166.7278 C.ar    1  UNL1        0.0520
     18 C         141.1482  139.5736  165.3238 C.ar    1  UNL1        0.1443
     19 H         138.3857  139.6982  169.1941 H       1  UNL1        0.1424
     20 H         139.8636  140.5451  169.2737 H       1  UNL1        0.1424
     21 O         142.4327  140.0078  164.6824 O.3     1  UNL1       -0.4712
     22 C         143.6451  139.1280  164.7610 C.3     1  UNL1        0.2525
     23 O         138.4064  139.0109  160.0654 O.3     1  UNL1       -0.3505
     24 C         137.7247  140.2715  159.6223 C.3     1  UNL1        0.1741
     25 C         141.8835  137.6377  156.4565 C.3     1  UNL1        0.0722
     26 C         143.1946  131.9040  155.2706 C.2     1  UNL1        0.4050
     27 O         144.5043  131.3261  155.7184 O.2     1  UNL1       -0.2262
     28 N         142.8668  133.3375  155.5671 N.am    1  UNL1       -0.2460
     29 C         141.5571  133.9154  155.1192 C.3     1  UNL1        0.0968
     30 C         141.2294  135.3489  155.4157 C.3     1  UNL1        0.0231
     31 C         142.2113  136.2043  156.1600 C.3     1  UNL1        0.0194
     32 C         143.5209  135.6263  156.6079 C.3     1  UNL1        0.0231
     33 C         143.8487  134.1929  156.3114 C.3     1  UNL1        0.0968
     34 C         141.4401  129.9880  155.2530 C.3     1  UNL1        0.2573
     35 O         142.2127  131.0486  154.5263 O.3     1  UNL1       -0.4304
@<TRIPOS>BOND
     1    34    35    1
     2    35    26    1
     3    26    27    2
     4    26    28   am
     5    28    29    1
     6    29    30    1
     7    30    31    1
     8    31    25    1
     9    25     1    1
    10     1     2    1
    11     2     3    1
    12     3     4    1
    13     4     7    1
    14     7     8   am
    15     8     9    2
    16     8    11    1
    17    11    12   ar
    18    12    13   ar
    19    13    14    1
    20    13    15   ar
    21    15    16    1
    22    15    17   ar
    23    17    18   ar
    24    18    21    1
    25    21    22    1
    26     4     5    1
    27     5    23    1
    28    23    24    1
    29     5     6    1
    30    31    32    1
    31    32    33    1
    32    33    28    1
    33     6     1    1
    34    18    11   ar
    35     7    10    1
    36    16    19    1
    37    16    20    1
@<TRIPOS>MOLECULE
*****
 35 37 0 0 0
SMALL
GASTEIGER

@<TRIPOS>ATOM
      1 N         140.7485  139.0467  159.7996 N.3     1  UNL1       -0.2705
      2 C         139.7785  138.2868  160.6551 C.3     1  UNL1        0.0739
      3 C         139.9544  138.2583  162.1444 C.3     1  UNL1        0.0394
      4 C         141.1003  138.9897  162.7784 C.3     1  UNL1        0.1017
      5 C         142.0703  139.7496  161.9231 C.3     1  UNL1        0.1490
      6 C         141.8944  139.7781  160.4336 C.3     1  UNL1        0.1037
      7 N         141.2762  138.9612  164.2678 N.am    1  UNL1       -0.2999
      8 C         140.5514  139.9536  165.1278 C.2     1  UNL1        0.2488
      9 O         139.6506  140.9746  164.4984 O.2     1  UNL1       -0.2700
     10 H         141.8674  138.2911  164.6809 H       1  UNL1        0.1498
     11 C         140.7273  139.9251  166.6171 C.ar    1  UNL1        0.0882
     12 C         139.5519  140.1712  167.5161 C.ar    1  UNL1        0.0202
     13 C         139.7278  140.1426  169.0054 C.ar    1  UNL1        0.0709
     14 CL        138.5525  140.3887  169.9042 Cl      1  UNL1       -0.0810
     15 C         141.0791  139.8680  169.5959 C.ar    1  UNL1        0.0553
     16 N         141.2550  139.8394  171.0852 N.pl3   1  UNL1       -0.3563
     17 C         142.2544  139.6219  168.6971 C.ar    1  UNL1        0.0520
     18 C         142.0785  139.6504  167.2076 C.ar    1  UNL1        0.1443
     19 H         140.4836  140.0010  171.6752 H       1  UNL1        0.1424
     20 H         142.1419  139.6592  171.4728 H       1  UNL1        0.1424
     21 O         143.2539  139.4043  166.3088 O.3     1  UNL1       -0.4712
     22 C         143.9998  138.1054  166.3882 C.3     1  UNL1        0.2525
     23 O         143.2162  140.4810  162.5571 O.3     1  UNL1       -0.3505
     24 C         143.0315  141.8885  163.0417 C.3     1  UNL1        0.1741
     25 C         140.5726  139.0752  158.3103 C.3     1  UNL1        0.0722
     26 C         142.3909  134.4237  154.9851 C.2     1  UNL1        0.4050
     27 O         141.5132  133.8969  153.8887 O.2     1  UNL1       -0.2262
     28 N         141.9363  135.5866  155.8164 N.am    1  UNL1       -0.2460
     29 C         142.8140  136.1133  156.9128 C.3     1  UNL1        0.0968
     30 C         142.3594  137.2762  157.7441 C.3     1  UNL1        0.0231
     31 C         141.0272  137.9123  157.4790 C.3     1  UNL1        0.0194
     32 C         140.1495  137.3856  156.3826 C.3     1  UNL1        0.0231
     33 C         140.6040  136.2227  155.5513 C.3     1  UNL1        0.0968
     34 C         143.8028  132.3304  155.5974 C.3     1  UNL1        0.2573
     35 O         143.7232  133.7875  155.2502 O.3     1  UNL1       -0.4304
@<TRIPOS>BOND
     1    34    35    1
     2    35    26    1
     3    26    27    2
     4    26    28   am
     5    28    29    1
     6    29    30    1
     7    30    31    1
     8    31    25    1
     9    25     1    1
    10     1     2    1
    11     2     3    1
    12     3     4    1
    13     4     7    1
    14     7     8   am
    15     8     9    2
    16     8    11    1
    17    11    12   ar
    18    12    13   ar
    19    13    14    1
    20    13    15   ar
    21    15    16    1
    22    15    17   ar
    23    17    18   ar
    24    18    21    1
    25    21    22    1
    26     4     5    1
    27     5    23    1
    28    23    24    1
    29     5     6    1
    30    31    32    1
    31    32    33    1
    32    33    28    1
    33     6     1    1
    34    18    11   ar
    35     7    10    1
    36    16    19    1
    37    16    20    1
