@<TRIPOS>MOLECULE
*****
 26 27 0 0 0
SMALL
GASTEIGER

@<TRIPOS>ATOM
      1 C         139.0528  139.8882  165.2924 C.ar    1  UNL1        0.1327
      2 N         138.0630  138.8382  165.7019 N.ar    1  UNL1       -0.1993
      3 C         137.8360  138.5480  167.1560 C.ar    1  UNL1        0.2148
      4 N         136.8462  137.4979  167.5655 N.pl3   1  UNL1       -0.3274
      5 N         138.5987  139.3077  168.2004 N.ar    1  UNL1       -0.2138
      6 C         139.5885  140.3578  167.7909 C.ar    1  UNL1        0.0899
      7 C         140.3512  141.1176  168.8353 C.ar    1  UNL1        0.0562
      8 C         141.3410  142.1676  168.4258 C.ar    1  UNL1        0.1402
      9 C         141.5680  142.4579  166.9717 C.ar    1  UNL1        0.0371
     10 C         140.8053  141.6981  165.9273 C.ar    1  UNL1        0.0074
     11 C         139.8156  140.6481  166.3368 C.ar    1  UNL1        0.0494
     12 H         136.3456  136.9992  166.8800 H       1  UNL1        0.1452
     13 H         136.6971  137.3074  168.5198 H       1  UNL1        0.1452
     14 N         139.2798  140.1785  163.8383 N.pl3   1  UNL1       -0.3195
     15 H         140.1903  140.1425  163.4655 H       1  UNL1        0.1481
     16 C         138.1197  140.5235  162.9523 C.3     1  UNL1        0.0729
     17 C         137.3414  141.7832  163.1923 C.3     1  UNL1        0.0196
     18 C         138.0622  143.0826  163.3971 C.3     1  UNL1        0.0017
     19 C         138.8218  144.7711  165.2198 C.3     1  UNL1        0.0000
     20 C         137.7471  143.9351  164.5905 C.3     1  UNL1        0.0001
     21 C         137.7378  139.6089  161.8264 C.3     1  UNL1        0.0512
     22 C         138.4150  138.2788  161.6780 C.3     1  UNL1        0.1389
     23 O         138.5429  137.3662  162.8615 O.3     1  UNL1       -0.3819
     24 H         139.1261  137.7725  163.5215 H       1  UNL1        0.2104
     25 O         142.1038  142.9275  169.4702 O.3     1  UNL1       -0.4714
     26 C         143.4675  142.4637  169.8888 C.3     1  UNL1        0.2525
@<TRIPOS>BOND
     1    19    20    1
     2    20    18    1
     3    18    17    1
     4    16    17    1
     5    16    21    1
     6    21    22    1
     7    22    23    1
     8    16    14    1
     9    14     1    1
    10     1     2   ar
    11     2     3   ar
    12     3     4    1
    13     3     5   ar
    14     5     6   ar
    15     6     7   ar
    16     7     8   ar
    17     8    25    1
    18    25    26    1
    19     8     9   ar
    20     9    10   ar
    21    10    11   ar
    22    11     1   ar
    23    11     6   ar
    24    23    24    1
    25    14    15    1
    26     4    12    1
    27     4    13    1
@<TRIPOS>MOLECULE
*****
 26 27 0 0 0
SMALL
GASTEIGER

@<TRIPOS>ATOM
      1 C         139.7846  140.6962  167.9430 C.ar    1  UNL1        0.1327
      2 N         138.9742  139.4507  168.1476 N.ar    1  UNL1       -0.1993
      3 C         138.1073  138.9296  167.0399 C.ar    1  UNL1        0.2148
      4 N         137.2969  137.6840  167.2446 N.pl3   1  UNL1       -0.3274
      5 N         138.0507  139.6540  165.7277 N.ar    1  UNL1       -0.2138
      6 C         138.8612  140.8995  165.5231 C.ar    1  UNL1        0.0899
      7 C         138.8046  141.6239  164.2108 C.ar    1  UNL1        0.0562
      8 C         139.6150  142.8695  164.0063 C.ar    1  UNL1        0.1402
      9 C         140.4820  143.3906  165.1139 C.ar    1  UNL1        0.0371
     10 C         140.5385  142.6662  166.4261 C.ar    1  UNL1        0.0074
     11 C         139.7281  141.4207  166.6307 C.ar    1  UNL1        0.0494
     12 H         137.3340  137.2085  168.1059 H       1  UNL1        0.1452
     13 H         136.7278  137.3419  166.5176 H       1  UNL1        0.1452
     14 N         140.6515  141.2173  169.0506 N.pl3   1  UNL1       -0.3195
     15 H         140.2584  141.7676  169.7661 H       1  UNL1        0.1481
     16 C         142.1175  140.9000  169.0682 C.3     1  UNL1        0.0729
     17 C         142.5828  139.4919  168.8432 C.3     1  UNL1        0.0196
     18 C         142.9420  139.0325  167.4611 C.3     1  UNL1        0.0017
     19 C         142.5188  139.6584  164.9754 C.3     1  UNL1        0.0000
     20 C         143.0251  140.0244  166.3390 C.3     1  UNL1        0.0001
     21 C         143.1181  141.9909  169.3108 C.3     1  UNL1        0.0512
     22 C         142.9862  142.8754  170.5150 C.3     1  UNL1        0.1389
     23 O         142.1865  142.4169  171.6983 O.3     1  UNL1       -0.3819
     24 H         141.2523  142.3428  171.4482 H       1  UNL1        0.2104
     25 O         139.5585  143.5939  162.6940 O.3     1  UNL1       -0.4714
     26 C         139.0159  144.9909  162.6313 C.3     1  UNL1        0.2525
@<TRIPOS>BOND
     1    19    20    1
     2    20    18    1
     3    18    17    1
     4    16    17    1
     5    16    21    1
     6    21    22    1
     7    22    23    1
     8    16    14    1
     9    14     1    1
    10     1     2   ar
    11     2     3   ar
    12     3     4    1
    13     3     5   ar
    14     5     6   ar
    15     6     7   ar
    16     7     8   ar
    17     8    25    1
    18    25    26    1
    19     8     9   ar
    20     9    10   ar
    21    10    11   ar
    22    11     1   ar
    23    11     6   ar
    24    23    24    1
    25    14    15    1
    26     4    12    1
    27     4    13    1
@<TRIPOS>MOLECULE
*****
 26 27 0 0 0
SMALL
GASTEIGER

@<TRIPOS>ATOM
      1 C         139.3160  139.6359  165.3413 C.ar    1  UNL1        0.1327
      2 N         138.2768  138.6193  165.7107 N.ar    1  UNL1       -0.1993
      3 C         137.8596  138.4595  167.1426 C.ar    1  UNL1        0.2148
      4 N         136.8203  137.4429  167.5120 N.pl3   1  UNL1       -0.3274
      5 N         138.4816  139.3164  168.2051 N.ar    1  UNL1       -0.2138
      6 C         139.5208  140.3331  167.8357 C.ar    1  UNL1        0.0899
      7 C         140.1428  141.1899  168.8982 C.ar    1  UNL1        0.0562
      8 C         141.1820  142.2065  168.5287 C.ar    1  UNL1        0.1402
      9 C         141.5992  142.3663  167.0968 C.ar    1  UNL1        0.0371
     10 C         140.9772  141.5095  166.0343 C.ar    1  UNL1        0.0074
     11 C         139.9380  140.4928  166.4038 C.ar    1  UNL1        0.0494
     12 H         136.4121  136.8805  166.8147 H       1  UNL1        0.1452
     13 H         136.5465  137.3380  168.4519 H       1  UNL1        0.1452
     14 N         139.7332  139.7957  163.9093 N.pl3   1  UNL1       -0.3195
     15 H         139.6107  140.6602  163.4545 H       1  UNL1        0.1481
     16 C         140.3370  138.6384  163.1705 C.3     1  UNL1        0.0729
     17 C         141.7341  138.1933  163.4868 C.3     1  UNL1        0.0196
     18 C         142.8214  139.2101  163.6717 C.3     1  UNL1        0.0017
     19 C         143.2607  138.3403  166.0801 C.3     1  UNL1        0.0000
     20 C         143.6668  139.1872  164.9105 C.3     1  UNL1        0.0001
     21 C         139.5437  137.9261  162.1152 C.3     1  UNL1        0.0512
     22 C         138.0572  138.1124  162.0408 C.3     1  UNL1        0.1389
     23 O         137.4708  139.4920  162.0921 O.3     1  UNL1       -0.3819
     24 H         137.6400  139.8831  162.9635 H       1  UNL1        0.2104
     25 O         141.8040  143.0634  169.5913 O.3     1  UNL1       -0.4714
     26 C         143.1545  142.7130  170.1420 C.3     1  UNL1        0.2525
@<TRIPOS>BOND
     1    19    20    1
     2    20    18    1
     3    18    17    1
     4    16    17    1
     5    16    21    1
     6    21    22    1
     7    22    23    1
     8    16    14    1
     9    14     1    1
    10     1     2   ar
    11     2     3   ar
    12     3     4    1
    13     3     5   ar
    14     5     6   ar
    15     6     7   ar
    16     7     8   ar
    17     8    25    1
    18    25    26    1
    19     8     9   ar
    20     9    10   ar
    21    10    11   ar
    22    11     1   ar
    23    11     6   ar
    24    23    24    1
    25    14    15    1
    26     4    12    1
    27     4    13    1
@<TRIPOS>MOLECULE
*****
 26 27 0 0 0
SMALL
GASTEIGER

@<TRIPOS>ATOM
      1 C         140.0578  140.7521  163.2455 C.ar    1  UNL1        0.1327
      2 N         139.5243  139.7813  162.2340 N.ar    1  UNL1       -0.1993
      3 C         138.7534  138.5762  162.6850 C.ar    1  UNL1        0.2148
      4 N         138.2200  137.6054  161.6735 N.pl3   1  UNL1       -0.3274
      5 N         138.5160  138.3418  164.1474 N.ar    1  UNL1       -0.2138
      6 C         139.0494  139.3126  165.1589 C.ar    1  UNL1        0.0899
      7 C         138.8119  139.0783  166.6213 C.ar    1  UNL1        0.0562
      8 C         139.3454  140.0490  167.6327 C.ar    1  UNL1        0.1402
      9 C         140.1163  141.2542  167.1817 C.ar    1  UNL1        0.0371
     10 C         140.3537  141.4885  165.7194 C.ar    1  UNL1        0.0074
     11 C         139.8203  140.5178  164.7079 C.ar    1  UNL1        0.0494
     12 H         138.3759  137.7592  160.7136 H       1  UNL1        0.1452
     13 H         137.7140  136.8144  161.9694 H       1  UNL1        0.1452
     14 N         140.8287  141.9572  162.7945 N.pl3   1  UNL1       -0.3195
     15 H         141.8020  141.8967  162.6593 H       1  UNL1        0.1481
     16 C         140.1166  143.2545  162.5494 C.3     1  UNL1        0.0729
     17 C         138.6344  143.2648  162.3198 C.3     1  UNL1        0.0196
     18 C         137.7449  144.0924  163.1995 C.3     1  UNL1        0.0017
     19 C         138.6103  144.9207  165.5049 C.3     1  UNL1        0.0000
     20 C         137.8158  143.9433  164.6904 C.3     1  UNL1        0.0001
     21 C         140.8869  144.5416  162.5340 C.3     1  UNL1        0.0512
     22 C         140.5007  145.6354  161.5830 C.3     1  UNL1        0.1389
     23 O         140.0020  146.9475  162.1118 O.3     1  UNL1       -0.3819
     24 H         139.1518  146.8137  162.5592 H       1  UNL1        0.2104
     25 O         139.1079  139.8147  169.0952 O.3     1  UNL1       -0.4714
     26 C         139.4761  140.8718  170.0936 C.3     1  UNL1        0.2525
@<TRIPOS>BOND
     1    19    20    1
     2    20    18    1
     3    18    17    1
     4    16    17    1
     5    16    21    1
     6    21    22    1
     7    22    23    1
     8    16    14    1
     9    14     1    1
    10     1     2   ar
    11     2     3   ar
    12     3     4    1
    13     3     5   ar
    14     5     6   ar
    15     6     7   ar
    16     7     8   ar
    17     8    25    1
    18    25    26    1
    19     8     9   ar
    20     9    10   ar
    21    10    11   ar
    22    11     1   ar
    23    11     6   ar
    24    23    24    1
    25    14    15    1
    26     4    12    1
    27     4    13    1
@<TRIPOS>MOLECULE
*****
 26 27 0 0 0
SMALL
GASTEIGER

@<TRIPOS>ATOM
      1 C         138.9363  140.6762  164.8947 C.ar    1  UNL1        0.1327
      2 N         139.0089  141.7001  163.8010 N.ar    1  UNL1       -0.1993
      3 C         139.6692  143.0229  164.0546 C.ar    1  UNL1        0.2148
      4 N         139.7418  144.0468  162.9608 N.pl3   1  UNL1       -0.3274
      5 N         140.2570  143.3217  165.4019 N.ar    1  UNL1       -0.2138
      6 C         140.1844  142.2978  166.4957 C.ar    1  UNL1        0.0899
      7 C         140.7721  142.5966  167.8430 C.ar    1  UNL1        0.0562
      8 C         140.6995  141.5727  168.9367 C.ar    1  UNL1        0.1402
      9 C         140.0391  140.2499  168.6831 C.ar    1  UNL1        0.0371
     10 C         139.4514  139.9511  167.3358 C.ar    1  UNL1        0.0074
     11 C         139.5240  140.9750  166.2421 C.ar    1  UNL1        0.0494
     12 H         139.3561  143.8507  162.0765 H       1  UNL1        0.1452
     13 H         140.1753  144.9150  163.1272 H       1  UNL1        0.1452
     14 N         138.2759  139.3535  164.6412 N.pl3   1  UNL1       -0.3195
     15 H         137.3477  139.2028  164.9326 H       1  UNL1        0.1481
     16 C         139.0298  138.2603  163.9436 C.3     1  UNL1        0.0729
     17 C         139.8771  137.3096  164.7363 C.3     1  UNL1        0.0196
     18 C         141.3724  137.3783  164.6395 C.3     1  UNL1        0.0017
     19 C         142.9462  138.7153  166.2160 C.3     1  UNL1        0.0000
     20 C         142.0889  138.6495  164.9870 C.3     1  UNL1        0.0001
     21 C         138.9365  138.1178  162.4532 C.3     1  UNL1        0.0512
     22 C         137.7028  138.5739  161.7320 C.3     1  UNL1        0.1389
     23 O         137.2402  139.9948  161.8621 O.3     1  UNL1       -0.3819
     24 H         136.9649  140.1627  162.7769 H       1  UNL1        0.2104
     25 O         141.2872  141.8715  170.2841 O.3     1  UNL1       -0.4714
     26 C         142.4906  142.7598  170.3971 C.3     1  UNL1        0.2525
@<TRIPOS>BOND
     1    19    20    1
     2    20    18    1
     3    18    17    1
     4    16    17    1
     5    16    21    1
     6    21    22    1
     7    22    23    1
     8    16    14    1
     9    14     1    1
    10     1     2   ar
    11     2     3   ar
    12     3     4    1
    13     3     5   ar
    14     5     6   ar
    15     6     7   ar
    16     7     8   ar
    17     8    25    1
    18    25    26    1
    19     8     9   ar
    20     9    10   ar
    21    10    11   ar
    22    11     1   ar
    23    11     6   ar
    24    23    24    1
    25    14    15    1
    26     4    12    1
    27     4    13    1
@<TRIPOS>MOLECULE
*****
 26 27 0 0 0
SMALL
GASTEIGER

@<TRIPOS>ATOM
      1 C         140.5050  145.1506  162.2272 C.ar    1  UNL1        0.1327
      2 N         140.0326  145.4996  160.8470 N.ar    1  UNL1       -0.1993
      3 C         140.8445  145.0964  159.6520 C.ar    1  UNL1        0.2148
      4 N         140.3719  145.4455  158.2718 N.pl3   1  UNL1       -0.3274
      5 N         142.1289  144.3441  159.8371 N.ar    1  UNL1       -0.2138
      6 C         142.6014  143.9950  161.2173 C.ar    1  UNL1        0.0899
      7 C         143.8859  143.2427  161.4024 C.ar    1  UNL1        0.0562
      8 C         144.3583  142.8936  162.7825 C.ar    1  UNL1        0.1402
      9 C         143.5464  143.2969  163.9776 C.ar    1  UNL1        0.0371
     10 C         142.2620  144.0492  163.7925 C.ar    1  UNL1        0.0074
     11 C         141.7895  144.3982  162.4123 C.ar    1  UNL1        0.0494
     12 H         139.5289  145.9392  158.1503 H       1  UNL1        0.1452
     13 H         140.9048  145.1808  157.4874 H       1  UNL1        0.1452
     14 N         139.6931  145.5538  163.4223 N.pl3   1  UNL1       -0.3195
     15 H         139.7659  146.4677  163.7812 H       1  UNL1        0.1481
     16 C         138.7704  144.5647  164.0705 C.3     1  UNL1        0.0729
     17 C         138.9860  144.1626  165.4994 C.3     1  UNL1        0.0196
     18 C         139.6966  142.8808  165.8188 C.3     1  UNL1        0.0017
     19 C         141.8271  142.1331  167.1040 C.3     1  UNL1        0.0000
     20 C         140.4577  142.7453  167.1042 C.3     1  UNL1        0.0001
     21 C         137.6320  143.9777  163.2897 C.3     1  UNL1        0.0512
     22 C         137.7266  142.5757  162.7649 C.3     1  UNL1        0.1389
     23 O         136.7164  141.5487  163.1828 O.3     1  UNL1       -0.3819
     24 H         136.8076  141.3731  164.1324 H       1  UNL1        0.2104
     25 O         145.6428  142.1413  162.9677 O.3     1  UNL1       -0.4714
     26 C         145.7100  140.9996  163.9383 C.3     1  UNL1        0.2525
@<TRIPOS>BOND
     1    19    20    1
     2    20    18    1
     3    18    17    1
     4    16    17    1
     5    16    21    1
     6    21    22    1
     7    22    23    1
     8    16    14    1
     9    14     1    1
    10     1     2   ar
    11     2     3   ar
    12     3     4    1
    13     3     5   ar
    14     5     6   ar
    15     6     7   ar
    16     7     8   ar
    17     8    25    1
    18    25    26    1
    19     8     9   ar
    20     9    10   ar
    21    10    11   ar
    22    11     1   ar
    23    11     6   ar
    24    23    24    1
    25    14    15    1
    26     4    12    1
    27     4    13    1
@<TRIPOS>MOLECULE
*****
 26 27 0 0 0
SMALL
GASTEIGER

@<TRIPOS>ATOM
      1 C         139.4373  143.1158  164.5496 C.ar    1  UNL1        0.1327
      2 N         138.6585  142.5873  163.3817 N.ar    1  UNL1       -0.1993
      3 C         138.0898  141.1999  163.4254 C.ar    1  UNL1        0.2148
      4 N         137.3109  140.6715  162.2574 N.pl3   1  UNL1       -0.3274
      5 N         138.3001  140.3411  164.6371 N.ar    1  UNL1       -0.2138
      6 C         139.0790  140.8695  165.8050 C.ar    1  UNL1        0.0899
      7 C         139.2892  140.0107  167.0167 C.ar    1  UNL1        0.0562
      8 C         140.0681  140.5391  168.1846 C.ar    1  UNL1        0.1402
      9 C         140.6367  141.9265  168.1408 C.ar    1  UNL1        0.0371
     10 C         140.4265  142.7854  166.9292 C.ar    1  UNL1        0.0074
     11 C         139.6476  142.2569  165.7613 C.ar    1  UNL1        0.0494
     12 H         137.1730  141.2352  161.4622 H       1  UNL1        0.1452
     13 H         136.9377  139.7609  162.2861 H       1  UNL1        0.1452
     14 N         140.0060  144.5031  164.5059 N.pl3   1  UNL1       -0.3195
     15 H         139.6021  145.2180  165.0491 H       1  UNL1        0.1481
     16 C         141.1898  144.8013  163.6344 C.3     1  UNL1        0.0729
     17 C         142.5791  144.6541  164.1805 C.3     1  UNL1        0.0196
     18 C         143.4229  143.4811  163.7777 C.3     1  UNL1        0.0017
     19 C         143.4797  141.4474  165.3935 C.3     1  UNL1        0.0000
     20 C         142.9890  142.0890  164.1296 C.3     1  UNL1        0.0001
     21 C         140.9845  145.2468  162.2169 C.3     1  UNL1        0.0512
     22 C         139.7417  145.9969  161.8390 C.3     1  UNL1        0.1389
     23 O         138.3931  145.3997  162.1119 O.3     1  UNL1       -0.3819
     24 H         138.2751  144.6054  161.5677 H       1  UNL1        0.2104
     25 O         140.2784  139.6803  169.3963 O.3     1  UNL1       -0.4714
     26 C         140.6816  140.3062  170.6984 C.3     1  UNL1        0.2525
@<TRIPOS>BOND
     1    19    20    1
     2    20    18    1
     3    18    17    1
     4    16    17    1
     5    16    21    1
     6    21    22    1
     7    22    23    1
     8    16    14    1
     9    14     1    1
    10     1     2   ar
    11     2     3   ar
    12     3     4    1
    13     3     5   ar
    14     5     6   ar
    15     6     7   ar
    16     7     8   ar
    17     8    25    1
    18    25    26    1
    19     8     9   ar
    20     9    10   ar
    21    10    11   ar
    22    11     1   ar
    23    11     6   ar
    24    23    24    1
    25    14    15    1
    26     4    12    1
    27     4    13    1
@<TRIPOS>MOLECULE
*****
 26 27 0 0 0
SMALL
GASTEIGER

@<TRIPOS>ATOM
      1 C         139.9599  141.4393  166.7009 C.ar    1  UNL1        0.1327
      2 N         139.5892  139.9886  166.6122 N.ar    1  UNL1       -0.1993
      3 C         138.8600  139.4731  165.4070 C.ar    1  UNL1        0.2148
      4 N         138.4893  138.0223  165.3184 N.pl3   1  UNL1       -0.3274
      5 N         138.5015  140.4084  164.2905 N.ar    1  UNL1       -0.2138
      6 C         138.8722  141.8592  164.3791 C.ar    1  UNL1        0.0899
      7 C         138.5136  142.7945  163.2626 C.ar    1  UNL1        0.0562
      8 C         138.8843  144.2452  163.3513 C.ar    1  UNL1        0.1402
      9 C         139.6136  144.7607  164.5565 C.ar    1  UNL1        0.0371
     10 C         139.9721  143.8254  165.6730 C.ar    1  UNL1        0.0074
     11 C         139.6014  142.3747  165.5843 C.ar    1  UNL1        0.0494
     12 H         138.7246  137.4084  166.0512 H       1  UNL1        0.1452
     13 H         138.0107  137.6839  164.5274 H       1  UNL1        0.1452
     14 N         140.6892  141.9548  167.9061 N.pl3   1  UNL1       -0.3195
     15 H         140.1926  142.4080  168.6253 H       1  UNL1        0.1481
     16 C         142.1748  141.7796  168.0155 C.3     1  UNL1        0.0729
     17 C         143.0067  141.6379  166.7754 C.3     1  UNL1        0.0196
     18 C         143.6377  142.8483  166.1533 C.3     1  UNL1        0.0017
     19 C         143.6197  144.5085  164.1549 C.3     1  UNL1        0.0000
     20 C         143.4640  143.1149  164.6874 C.3     1  UNL1        0.0001
     21 C         142.8287  141.7461  169.3651 C.3     1  UNL1        0.0512
     22 C         142.4762  142.7779  170.3952 C.3     1  UNL1        0.1389
     23 O         142.2241  142.3647  171.8149 O.3     1  UNL1       -0.3819
     24 H         141.4253  141.8158  171.8549 H       1  UNL1        0.2104
     25 O         138.5258  145.1806  162.2347 O.3     1  UNL1       -0.4714
     26 C         139.5471  146.1435  161.7059 C.3     1  UNL1        0.2525
@<TRIPOS>BOND
     1    19    20    1
     2    20    18    1
     3    18    17    1
     4    16    17    1
     5    16    21    1
     6    21    22    1
     7    22    23    1
     8    16    14    1
     9    14     1    1
    10     1     2   ar
    11     2     3   ar
    12     3     4    1
    13     3     5   ar
    14     5     6   ar
    15     6     7   ar
    16     7     8   ar
    17     8    25    1
    18    25    26    1
    19     8     9   ar
    20     9    10   ar
    21    10    11   ar
    22    11     1   ar
    23    11     6   ar
    24    23    24    1
    25    14    15    1
    26     4    12    1
    27     4    13    1
@<TRIPOS>MOLECULE
*****
 26 27 0 0 0
SMALL
GASTEIGER

@<TRIPOS>ATOM
      1 C         141.4114  144.3644  164.0387 C.ar    1  UNL1        0.1327
      2 N         142.5268  144.5529  163.0537 N.ar    1  UNL1       -0.1993
      3 C         143.6859  143.6008  163.0420 C.ar    1  UNL1        0.2148
      4 N         144.8014  143.7893  162.0569 N.pl3   1  UNL1       -0.3274
      5 N         143.7295  142.4603  164.0152 N.ar    1  UNL1       -0.2138
      6 C         142.6140  142.2718  165.0003 C.ar    1  UNL1        0.0899
      7 C         142.6577  141.1312  165.9735 C.ar    1  UNL1        0.0562
      8 C         141.5422  140.9428  166.9585 C.ar    1  UNL1        0.1402
      9 C         140.3832  141.8948  166.9702 C.ar    1  UNL1        0.0371
     10 C         140.3395  143.0354  165.9970 C.ar    1  UNL1        0.0074
     11 C         141.4550  143.2238  165.0120 C.ar    1  UNL1        0.0494
     12 H         144.7727  144.5379  161.4181 H       1  UNL1        0.1452
     13 H         145.5621  143.1644  162.0492 H       1  UNL1        0.1452
     14 N         140.2523  145.3165  164.0505 N.pl3   1  UNL1       -0.3195
     15 H         140.1223  145.9242  164.8139 H       1  UNL1        0.1481
     16 C         139.2914  145.3425  162.8990 C.3     1  UNL1        0.0729
     17 C         138.0137  144.5601  162.9705 C.3     1  UNL1        0.0196
     18 C         138.0541  143.0619  163.0327 C.3     1  UNL1        0.0017
     19 C         137.7128  140.8225  161.7605 C.3     1  UNL1        0.0000
     20 C         138.1385  142.2608  161.7674 C.3     1  UNL1        0.0001
     21 C         139.6083  146.1510  161.6758 C.3     1  UNL1        0.0512
     22 C         140.2458  145.4946  160.4873 C.3     1  UNL1        0.1389
     23 O         141.7393  145.4841  160.3476 O.3     1  UNL1       -0.3819
     24 H         142.0587  146.3914  160.2227 H       1  UNL1        0.2104
     25 O         141.5858  139.8022  167.9318 O.3     1  UNL1       -0.4714
     26 C         142.4965  139.8663  169.1221 C.3     1  UNL1        0.2525
@<TRIPOS>BOND
     1    19    20    1
     2    20    18    1
     3    18    17    1
     4    16    17    1
     5    16    21    1
     6    21    22    1
     7    22    23    1
     8    16    14    1
     9    14     1    1
    10     1     2   ar
    11     2     3   ar
    12     3     4    1
    13     3     5   ar
    14     5     6   ar
    15     6     7   ar
    16     7     8   ar
    17     8    25    1
    18    25    26    1
    19     8     9   ar
    20     9    10   ar
    21    10    11   ar
    22    11     1   ar
    23    11     6   ar
    24    23    24    1
    25    14    15    1
    26     4    12    1
    27     4    13    1
