@<TRIPOS>MOLECULE
*****
 40 43 0 0 0
SMALL
GASTEIGER

@<TRIPOS>ATOM
      1 C         142.1624  141.3525  166.8926 C.3     1  UNL1        0.1159
      2 O         142.4854  140.2514  167.8587 O.3     1  UNL1       -0.3820
      3 H         142.9526  140.6201  168.6247 H       1  UNL1        0.2107
      4 C         140.1100  144.0635  164.8461 C.ar    1  UNL1        0.1070
      5 C         140.4330  142.9624  165.8122 C.ar    1  UNL1        0.0235
      6 C         141.8394  142.4535  165.9265 C.ar    1  UNL1        0.0064
      7 C         142.9228  143.0457  165.0747 C.ar    1  UNL1        0.0235
      8 C         142.5998  144.1467  164.1086 C.ar    1  UNL1        0.1070
      9 N         141.1934  144.6556  163.9943 N.ar    1  UNL1       -0.2330
     10 S         138.7036  144.5723  164.7318 S.3     1  UNL1       -0.0950
     11 C         137.7111  142.7077  163.2192 C.3     1  UNL1        0.0130
     12 C         137.8487  144.1594  163.5705 C.3     1  UNL1        0.0637
     13 S         143.6832  144.7389  163.2568 S.3     1  UNL1       -0.0950
     14 C         144.4484  143.8687  162.3044 C.3     1  UNL1        0.0637
     15 C         143.7350  143.1811  161.1782 C.3     1  UNL1        0.0130
     16 C         142.8145  142.3464  167.8074 C.3     1  UNL1        0.0491
     17 C         142.6782  142.1996  169.2939 C.3     1  UNL1        0.0750
     18 N         141.3360  142.3621  169.9437 N.3     1  UNL1       -0.2702
     19 C         140.8659  141.3589  170.9549 C.3     1  UNL1        0.0897
     20 C         140.4640  143.5279  169.5823 C.3     1  UNL1        0.0897
     21 C         141.5103  140.3585  165.9778 C.3     1  UNL1        0.0776
     22 C         142.1495  140.0159  164.6647 C.ar    1  UNL1        0.0373
     23 C         141.4459  140.3414  163.3806 C.ar    1  UNL1        0.0023
     24 C         142.0851  139.9987  162.0675 C.ar    1  UNL1        0.0181
     25 C         141.3815  140.3242  160.7833 C.ar    1  UNL1        0.0082
     26 C         142.0207  139.9816  159.4703 C.ar    1  UNL1        0.0347
     27 BR        141.3171  140.3071  158.1861 Br      1  UNL1       -0.0490
     28 C         143.3634  139.3135  159.4414 C.ar    1  UNL1        0.0082
     29 C         144.0669  138.9880  160.7256 C.ar    1  UNL1        0.0197
     30 C         143.4277  139.3307  162.0386 C.ar    1  UNL1        0.0844
     31 N         144.1313  139.0052  163.3228 N.ar    1  UNL1       -0.2119
     32 C         143.4921  139.3478  164.6358 C.ar    1  UNL1        0.2211
     33 O         144.1957  139.0223  165.9200 O.3     1  UNL1       -0.4563
     34 C         143.9401  137.7120  166.6040 C.3     1  UNL1        0.2542
     35 C         140.2192  139.7072  166.3761 C.ar    1  UNL1       -0.0157
     36 C         139.5997  138.6667  165.4908 C.ar    1  UNL1       -0.0039
     37 C         138.3085  138.0153  165.8891 C.ar    1  UNL1       -0.0003
     38 C         137.6368  138.4045  167.1726 C.ar    1  UNL1       -0.0000
     39 C         138.2563  139.4450  168.0578 C.ar    1  UNL1       -0.0003
     40 C         139.5474  140.0963  167.6596 C.ar    1  UNL1       -0.0039
@<TRIPOS>BOND
     1    11    12    1
     2    12    10    1
     3    10     4    1
     4     4     5   ar
     5     5     6   ar
     6     6     1    1
     7     1     2    1
     8     1    16    1
     9    16    17    1
    10    17    18    1
    11    18    19    1
    12    18    20    1
    13     1    21    1
    14    21    35    1
    15    35    36   ar
    16    36    37   ar
    17    37    38   ar
    18    38    39   ar
    19    39    40   ar
    20    21    22    1
    21    22    23   ar
    22    23    24   ar
    23    24    25   ar
    24    25    26   ar
    25    26    27    1
    26    26    28   ar
    27    28    29   ar
    28    29    30   ar
    29    30    31   ar
    30    31    32   ar
    31    32    33    1
    32    33    34    1
    33     6     7   ar
    34     7     8   ar
    35     8    13    1
    36    13    14    1
    37    14    15    1
    38     8     9   ar
    39     9     4   ar
    40    40    35   ar
    41    32    22   ar
    42    30    24   ar
    43     2     3    1
@<TRIPOS>MOLECULE
*****
 40 43 0 0 0
SMALL
GASTEIGER

@<TRIPOS>ATOM
      1 C         139.7667  141.4021  162.2663 C.3     1  UNL1        0.1159
      2 O         138.5524  140.6007  162.6316 O.3     1  UNL1       -0.3820
      3 H         137.7772  140.9613  162.1735 H       1  UNL1        0.2107
      4 C         142.6901  143.0132  160.1197 C.ar    1  UNL1        0.1070
      5 C         141.4758  142.2119  160.4850 C.ar    1  UNL1        0.0235
      6 C         140.9809  142.2034  161.9009 C.ar    1  UNL1        0.0064
      7 C         141.7003  142.9963  162.9516 C.ar    1  UNL1        0.0235
      8 C         142.9145  143.7976  162.5862 C.ar    1  UNL1        0.1070
      9 N         143.4094  143.8061  161.1703 N.ar    1  UNL1       -0.2330
     10 S         143.1850  143.0216  158.7036 S.3     1  UNL1       -0.0950
     11 C         144.0768  140.5856  158.5604 C.3     1  UNL1        0.0130
     12 C         144.2420  142.0485  158.2728 C.3     1  UNL1        0.0637
     13 S         143.6339  144.5906  163.6369 S.3     1  UNL1       -0.0950
     14 C         144.2116  143.8974  164.8352 C.3     1  UNL1        0.0637
     15 C         144.9283  142.5899  164.6721 C.3     1  UNL1        0.0130
     16 C         138.9245  142.2768  161.3857 C.3     1  UNL1        0.0491
     17 C         137.8834  143.1706  161.9917 C.3     1  UNL1        0.0750
     18 N         138.2851  144.2323  162.9723 N.3     1  UNL1       -0.2702
     19 C         139.0605  145.4289  162.5064 C.3     1  UNL1        0.0897
     20 C         137.9115  144.0975  164.4187 C.3     1  UNL1        0.0897
     21 C         140.6089  140.5273  163.1468 C.3     1  UNL1        0.0776
     22 C         140.3503  140.4788  164.6236 C.ar    1  UNL1        0.0373
     23 C         140.5711  141.7013  165.4643 C.ar    1  UNL1        0.0023
     24 C         140.3124  141.6528  166.9411 C.ar    1  UNL1        0.0181
     25 C         140.5332  142.8753  167.7817 C.ar    1  UNL1        0.0082
     26 C         140.2745  142.8267  169.2584 C.ar    1  UNL1        0.0347
     27 BR        140.4953  144.0493  170.0991 Br      1  UNL1       -0.0490
     28 C         139.7951  141.5557  169.8945 C.ar    1  UNL1        0.0082
     29 C         139.5743  140.3332  169.0538 C.ar    1  UNL1        0.0197
     30 C         139.8330  140.3817  167.5771 C.ar    1  UNL1        0.0844
     31 N         139.6122  139.1592  166.7364 N.ar    1  UNL1       -0.2119
     32 C         139.8708  139.2078  165.2597 C.ar    1  UNL1        0.2211
     33 O         139.6500  137.9852  164.4190 O.3     1  UNL1       -0.4563
     34 C         140.6586  136.8750  164.4304 C.3     1  UNL1        0.2542
     35 C         141.7098  139.7011  162.5507 C.ar    1  UNL1       -0.0157
     36 C         143.0956  139.7753  163.1199 C.ar    1  UNL1       -0.0039
     37 C         144.1965  138.9491  162.5237 C.ar    1  UNL1       -0.0003
     38 C         143.9116  138.0486  161.3584 C.ar    1  UNL1       -0.0000
     39 C         142.5257  137.9743  160.7893 C.ar    1  UNL1       -0.0003
     40 C         141.4248  138.8006  161.3854 C.ar    1  UNL1       -0.0039
@<TRIPOS>BOND
     1    11    12    1
     2    12    10    1
     3    10     4    1
     4     4     5   ar
     5     5     6   ar
     6     6     1    1
     7     1     2    1
     8     1    16    1
     9    16    17    1
    10    17    18    1
    11    18    19    1
    12    18    20    1
    13     1    21    1
    14    21    35    1
    15    35    36   ar
    16    36    37   ar
    17    37    38   ar
    18    38    39   ar
    19    39    40   ar
    20    21    22    1
    21    22    23   ar
    22    23    24   ar
    23    24    25   ar
    24    25    26   ar
    25    26    27    1
    26    26    28   ar
    27    28    29   ar
    28    29    30   ar
    29    30    31   ar
    30    31    32   ar
    31    32    33    1
    32    33    34    1
    33     6     7   ar
    34     7     8   ar
    35     8    13    1
    36    13    14    1
    37    14    15    1
    38     8     9   ar
    39     9     4   ar
    40    40    35   ar
    41    32    22   ar
    42    30    24   ar
    43     2     3    1
@<TRIPOS>MOLECULE
*****
 40 43 0 0 0
SMALL
GASTEIGER

@<TRIPOS>ATOM
      1 C         139.7183  141.4747  162.1980 C.3     1  UNL1        0.1159
      2 O         138.5129  140.6598  162.5627 O.3     1  UNL1       -0.3820
      3 H         137.7260  141.0406  162.1424 H       1  UNL1        0.2107
      4 C         142.8967  143.8271  162.5357 C.ar    1  UNL1        0.1070
      5 C         141.6913  143.0122  162.9003 C.ar    1  UNL1        0.0235
      6 C         140.9237  142.2896  161.8333 C.ar    1  UNL1        0.0064
      7 C         141.3614  142.3819  160.4016 C.ar    1  UNL1        0.0235
      8 C         142.5668  143.1968  160.0370 C.ar    1  UNL1        0.1070
      9 N         143.3344  143.9194  161.1040 N.ar    1  UNL1       -0.2330
     10 S         143.6643  144.5498  163.6028 S.3     1  UNL1       -0.0950
     11 C         144.9325  142.5071  164.5872 C.3     1  UNL1        0.0130
     12 C         144.1923  143.7963  164.7874 C.3     1  UNL1        0.0637
     13 S         143.0046  143.2890  158.6052 S.3     1  UNL1       -0.0950
     14 C         143.9854  142.2962  158.0553 C.3     1  UNL1        0.0637
     15 C         144.1175  140.9429  158.6886 C.3     1  UNL1        0.0130
     16 C         138.8537  142.3874  161.3798 C.3     1  UNL1        0.0491
     17 C         137.8413  143.2652  162.0538 C.3     1  UNL1        0.0750
     18 N         138.2894  144.3237  163.0175 N.3     1  UNL1       -0.2702
     19 C         139.0861  145.4961  162.5268 C.3     1  UNL1        0.0897
     20 C         137.9409  144.2098  164.4720 C.3     1  UNL1        0.0897
     21 C         140.5828  140.5620  163.0163 C.3     1  UNL1        0.0776
     22 C         140.3887  140.4769  164.5013 C.ar    1  UNL1        0.0373
     23 C         140.5419  141.7046  165.3493 C.ar    1  UNL1        0.0023
     24 C         140.3477  141.6194  166.8343 C.ar    1  UNL1        0.0181
     25 C         140.5009  142.8471  167.6824 C.ar    1  UNL1        0.0082
     26 C         140.3068  142.7618  169.1673 C.ar    1  UNL1        0.0347
     27 BR        140.4599  143.9896  170.0154 Br      1  UNL1       -0.0490
     28 C         139.9595  141.4489  169.8041 C.ar    1  UNL1        0.0082
     29 C         139.8063  140.2212  168.9561 C.ar    1  UNL1        0.0197
     30 C         140.0004  140.3064  167.4712 C.ar    1  UNL1        0.0844
     31 N         139.8472  139.0787  166.6230 N.ar    1  UNL1       -0.2119
     32 C         140.0414  139.1639  165.1381 C.ar    1  UNL1        0.2211
     33 O         139.8882  137.9362  164.2900 O.3     1  UNL1       -0.4563
     34 C         140.9435  136.8705  164.3157 C.3     1  UNL1        0.2542
     35 C         141.6415  139.7346  162.3496 C.ar    1  UNL1       -0.0157
     36 C         143.0473  139.7526  162.8723 C.ar    1  UNL1       -0.0039
     37 C         144.1061  138.9251  162.2056 C.ar    1  UNL1       -0.0003
     38 C         143.7589  138.0796  161.0163 C.ar    1  UNL1       -0.0000
     39 C         142.3530  138.0616  160.4936 C.ar    1  UNL1       -0.0003
     40 C         141.2943  138.8891  161.1603 C.ar    1  UNL1       -0.0039
@<TRIPOS>BOND
     1    11    12    1
     2    12    10    1
     3    10     4    1
     4     4     5   ar
     5     5     6   ar
     6     6     1    1
     7     1     2    1
     8     1    16    1
     9    16    17    1
    10    17    18    1
    11    18    19    1
    12    18    20    1
    13     1    21    1
    14    21    35    1
    15    35    36   ar
    16    36    37   ar
    17    37    38   ar
    18    38    39   ar
    19    39    40   ar
    20    21    22    1
    21    22    23   ar
    22    23    24   ar
    23    24    25   ar
    24    25    26   ar
    25    26    27    1
    26    26    28   ar
    27    28    29   ar
    28    29    30   ar
    29    30    31   ar
    30    31    32   ar
    31    32    33    1
    32    33    34    1
    33     6     7   ar
    34     7     8   ar
    35     8    13    1
    36    13    14    1
    37    14    15    1
    38     8     9   ar
    39     9     4   ar
    40    40    35   ar
    41    32    22   ar
    42    30    24   ar
    43     2     3    1
@<TRIPOS>MOLECULE
*****
 40 43 0 0 0
SMALL
GASTEIGER

@<TRIPOS>ATOM
      1 C         142.3820  141.5590  162.4722 C.3     1  UNL1        0.1159
      2 O         143.5395  140.7938  163.0420 O.3     1  UNL1       -0.3820
      3 H         144.3704  141.1773  162.7204 H       1  UNL1        0.2107
      4 C         139.8145  143.0766  159.8541 C.ar    1  UNL1        0.1070
      5 C         140.9720  142.3115  160.4239 C.ar    1  UNL1        0.0235
      6 C         141.2245  142.3242  161.9024 C.ar    1  UNL1        0.0064
      7 C         140.3195  143.1021  162.8111 C.ar    1  UNL1        0.0235
      8 C         139.1620  143.8672  162.2413 C.ar    1  UNL1        0.1070
      9 N         138.9095  143.8545  160.7628 N.ar    1  UNL1       -0.2330
     10 S         139.5621  143.0639  158.3755 S.3     1  UNL1       -0.0950
     11 C         138.0697  140.9374  158.3478 C.3     1  UNL1        0.0130
     12 C         138.3941  142.3037  157.8206 C.3     1  UNL1        0.0637
     13 S         138.2569  144.6452  163.1501 S.3     1  UNL1       -0.0950
     14 C         138.0172  144.1729  164.5535 C.3     1  UNL1        0.0637
     15 C         138.5022  144.9911  165.7133 C.3     1  UNL1        0.0130
     16 C         143.3356  142.4585  161.7431 C.3     1  UNL1        0.0491
     17 C         144.3795  143.2200  162.5049 C.3     1  UNL1        0.0750
     18 N         144.0211  143.9004  163.7928 N.3     1  UNL1       -0.2702
     19 C         143.1941  145.1517  163.7750 C.3     1  UNL1        0.0897
     20 C         144.4897  143.3296  165.0983 C.3     1  UNL1        0.0897
     21 C         141.4285  140.6595  163.2013 C.3     1  UNL1        0.0776
     22 C         141.4677  140.5810  164.6988 C.ar    1  UNL1        0.0373
     23 C         141.0562  141.7647  165.5229 C.ar    1  UNL1        0.0023
     24 C         141.0955  141.6862  167.0204 C.ar    1  UNL1        0.0181
     25 C         140.6840  142.8700  167.8446 C.ar    1  UNL1        0.0082
     26 C         140.7233  142.7915  169.3419 C.ar    1  UNL1        0.0347
     27 BR        140.3118  143.9753  170.1662 Br      1  UNL1       -0.0490
     28 C         141.1740  141.5291  170.0152 C.ar    1  UNL1        0.0082
     29 C         141.5855  140.3453  169.1911 C.ar    1  UNL1        0.0197
     30 C         141.5462  140.4239  167.6937 C.ar    1  UNL1        0.0844
     31 N         141.9577  139.2400  166.8694 N.ar    1  UNL1       -0.2119
     32 C         141.9185  139.3186  165.3721 C.ar    1  UNL1        0.2211
     33 O         142.3300  138.1347  164.5478 O.3     1  UNL1       -0.4563
     34 C         141.3853  136.9841  164.3639 C.3     1  UNL1        0.2542
     35 C         140.4357  139.8385  162.4330 C.ar    1  UNL1       -0.0157
     36 C         140.8915  139.0002  161.2757 C.ar    1  UNL1       -0.0039
     37 C         139.8988  138.1791  160.5073 C.ar    1  UNL1       -0.0003
     38 C         138.4502  138.1964  160.8963 C.ar    1  UNL1       -0.0000
     39 C         137.9944  139.0348  162.0537 C.ar    1  UNL1       -0.0003
     40 C         138.9871  139.8558  162.8220 C.ar    1  UNL1       -0.0039
@<TRIPOS>BOND
     1    11    12    1
     2    12    10    1
     3    10     4    1
     4     4     5   ar
     5     5     6   ar
     6     6     1    1
     7     1     2    1
     8     1    16    1
     9    16    17    1
    10    17    18    1
    11    18    19    1
    12    18    20    1
    13     1    21    1
    14    21    35    1
    15    35    36   ar
    16    36    37   ar
    17    37    38   ar
    18    38    39   ar
    19    39    40   ar
    20    21    22    1
    21    22    23   ar
    22    23    24   ar
    23    24    25   ar
    24    25    26   ar
    25    26    27    1
    26    26    28   ar
    27    28    29   ar
    28    29    30   ar
    29    30    31   ar
    30    31    32   ar
    31    32    33    1
    32    33    34    1
    33     6     7   ar
    34     7     8   ar
    35     8    13    1
    36    13    14    1
    37    14    15    1
    38     8     9   ar
    39     9     4   ar
    40    40    35   ar
    41    32    22   ar
    42    30    24   ar
    43     2     3    1
@<TRIPOS>MOLECULE
*****
 40 43 0 0 0
SMALL
GASTEIGER

@<TRIPOS>ATOM
      1 C         142.6403  141.9111  162.2532 C.3     1  UNL1        0.1159
      2 O         143.8124  141.1656  162.8194 O.3     1  UNL1       -0.3820
      3 H         144.6298  141.6476  162.6186 H       1  UNL1        0.2107
      4 C         139.2474  143.9584  162.0377 C.ar    1  UNL1        0.1070
      5 C         140.4195  143.2129  162.6038 C.ar    1  UNL1        0.0235
      6 C         141.4683  142.6566  161.6871 C.ar    1  UNL1        0.0064
      7 C         141.3450  142.8457  160.2042 C.ar    1  UNL1        0.0235
      8 C         140.1730  143.5913  159.6380 C.ar    1  UNL1        0.1070
      9 N         139.1242  144.1476  160.5548 N.ar    1  UNL1       -0.2330
     10 S         138.1986  144.5148  162.9545 S.3     1  UNL1       -0.0950
     11 C         138.6683  144.9150  165.4782 C.3     1  UNL1        0.0130
     12 C         138.1251  144.0509  164.3790 C.3     1  UNL1        0.0637
     13 S         140.0498  143.7804  158.1551 S.3     1  UNL1       -0.0950
     14 C         139.2219  142.8283  157.3438 C.3     1  UNL1        0.0637
     15 C         138.7530  141.5386  157.9493 C.3     1  UNL1        0.0130
     16 C         143.5667  142.9653  161.7237 C.3     1  UNL1        0.0491
     17 C         144.5047  143.6755  162.6541 C.3     1  UNL1        0.0750
     18 N         144.0103  144.1780  163.9781 N.3     1  UNL1       -0.2702
     19 C         142.9956  145.2815  164.0301 C.3     1  UNL1        0.0897
     20 C         144.5306  143.5771  165.2501 C.3     1  UNL1        0.0897
     21 C         141.7139  140.8568  162.7828 C.3     1  UNL1        0.0776
     22 C         141.5899  140.6418  164.2621 C.ar    1  UNL1        0.0373
     23 C         141.2601  141.7951  165.1626 C.ar    1  UNL1        0.0023
     24 C         141.1361  141.5800  166.6420 C.ar    1  UNL1        0.0181
     25 C         140.8063  142.7334  167.5425 C.ar    1  UNL1        0.0082
     26 C         140.6823  142.5182  169.0218 C.ar    1  UNL1        0.0347
     27 BR        140.3525  143.6716  169.9224 Br      1  UNL1       -0.0490
     28 C         140.8882  141.1498  169.6006 C.ar    1  UNL1        0.0082
     29 C         141.2180  139.9964  168.7001 C.ar    1  UNL1        0.0197
     30 C         141.3420  140.2116  167.2208 C.ar    1  UNL1        0.0844
     31 N         141.6718  139.0582  166.3202 N.ar    1  UNL1       -0.2119
     32 C         141.7958  139.2733  164.8409 C.ar    1  UNL1        0.2211
     33 O         142.1256  138.1199  163.9403 O.3     1  UNL1       -0.4563
     34 C         141.1402  137.0035  163.7599 C.3     1  UNL1        0.2542
     35 C         140.9116  140.0177  161.8330 C.ar    1  UNL1       -0.0157
     36 C         139.4367  139.8464  162.0459 C.ar    1  UNL1       -0.0039
     37 C         138.6343  139.0072  161.0962 C.ar    1  UNL1       -0.0003
     38 C         139.3068  138.3394  159.9335 C.ar    1  UNL1       -0.0000
     39 C         140.7818  138.5107  159.7207 C.ar    1  UNL1       -0.0003
     40 C         141.5841  139.3498  160.6704 C.ar    1  UNL1       -0.0039
@<TRIPOS>BOND
     1    11    12    1
     2    12    10    1
     3    10     4    1
     4     4     5   ar
     5     5     6   ar
     6     6     1    1
     7     1     2    1
     8     1    16    1
     9    16    17    1
    10    17    18    1
    11    18    19    1
    12    18    20    1
    13     1    21    1
    14    21    35    1
    15    35    36   ar
    16    36    37   ar
    17    37    38   ar
    18    38    39   ar
    19    39    40   ar
    20    21    22    1
    21    22    23   ar
    22    23    24   ar
    23    24    25   ar
    24    25    26   ar
    25    26    27    1
    26    26    28   ar
    27    28    29   ar
    28    29    30   ar
    29    30    31   ar
    30    31    32   ar
    31    32    33    1
    32    33    34    1
    33     6     7   ar
    34     7     8   ar
    35     8    13    1
    36    13    14    1
    37    14    15    1
    38     8     9   ar
    39     9     4   ar
    40    40    35   ar
    41    32    22   ar
    42    30    24   ar
    43     2     3    1
@<TRIPOS>MOLECULE
*****
 40 43 0 0 0
SMALL
GASTEIGER

@<TRIPOS>ATOM
      1 C         139.3456  139.3820  163.7726 C.3     1  UNL1        0.1159
      2 O         137.8678  139.4131  163.5177 O.3     1  UNL1       -0.3820
      3 H         137.6157  138.6444  162.9827 H       1  UNL1        0.2107
      4 C         143.2562  139.7627  163.2138 C.ar    1  UNL1        0.1070
      5 C         141.7784  139.7939  162.9590 C.ar    1  UNL1        0.0235
      6 C         140.8235  139.3508  164.0275 C.ar    1  UNL1        0.0064
      7 C         141.3465  138.8765  165.3509 C.ar    1  UNL1        0.0235
      8 C         142.8244  138.8453  165.6058 C.ar    1  UNL1        0.1070
      9 N         143.7792  139.2884  164.5372 N.ar    1  UNL1       -0.2330
     10 S         144.2111  140.2059  162.1452 S.3     1  UNL1       -0.0950
     11 C         145.8004  141.7556  163.4951 C.3     1  UNL1        0.0130
     12 C         144.9458  141.5058  162.2880 C.3     1  UNL1        0.0637
     13 S         143.3473  138.3709  166.9293 S.3     1  UNL1       -0.0950
     14 C         143.0057  139.1204  168.1829 C.3     1  UNL1        0.0637
     15 C         142.9183  138.3926  169.4916 C.3     1  UNL1        0.0130
     16 C         139.4546  138.1100  162.9851 C.3     1  UNL1        0.0491
     17 C         138.6486  137.9319  161.7327 C.3     1  UNL1        0.0750
     18 N         138.9002  138.8153  160.5468 N.3     1  UNL1       -0.2702
     19 C         140.1814  138.6901  159.7768 C.3     1  UNL1        0.0897
     20 C         137.8708  139.8238  160.1310 C.3     1  UNL1        0.0897
     21 C         139.2367  140.6539  164.5601 C.3     1  UNL1        0.0776
     22 C         139.4455  140.6366  166.0455 C.ar    1  UNL1        0.0373
     23 C         140.4443  141.5630  166.6733 C.ar    1  UNL1        0.0023
     24 C         140.6532  141.5457  168.1586 C.ar    1  UNL1        0.0181
     25 C         141.6520  142.4720  168.7864 C.ar    1  UNL1        0.0082
     26 C         141.8608  142.4547  170.2717 C.ar    1  UNL1        0.0347
     27 BR        142.8597  143.3810  170.8995 Br      1  UNL1       -0.0490
     28 C         141.0707  141.5110  171.1292 C.ar    1  UNL1        0.0082
     29 C         140.0718  140.5847  170.5014 C.ar    1  UNL1        0.0197
     30 C         139.8631  140.6020  169.0161 C.ar    1  UNL1        0.0844
     31 N         138.8642  139.6756  168.3882 N.ar    1  UNL1       -0.2119
     32 C         138.6554  139.6930  166.9030 C.ar    1  UNL1        0.2211
     33 O         137.6565  138.7666  166.2751 O.3     1  UNL1       -0.4563
     34 C         137.7074  137.2969  166.5708 C.3     1  UNL1        0.2542
     35 C         138.9189  141.9431  163.8624 C.ar    1  UNL1       -0.0157
     36 C         139.5589  142.2595  162.5433 C.ar    1  UNL1       -0.0039
     37 C         139.2412  143.5488  161.8454 C.ar    1  UNL1       -0.0003
     38 C         138.2834  144.5217  162.4669 C.ar    1  UNL1       -0.0000
     39 C         137.6433  144.2052  163.7861 C.ar    1  UNL1       -0.0003
     40 C         137.9611  142.9160  164.4838 C.ar    1  UNL1       -0.0039
@<TRIPOS>BOND
     1    11    12    1
     2    12    10    1
     3    10     4    1
     4     4     5   ar
     5     5     6   ar
     6     6     1    1
     7     1     2    1
     8     1    16    1
     9    16    17    1
    10    17    18    1
    11    18    19    1
    12    18    20    1
    13     1    21    1
    14    21    35    1
    15    35    36   ar
    16    36    37   ar
    17    37    38   ar
    18    38    39   ar
    19    39    40   ar
    20    21    22    1
    21    22    23   ar
    22    23    24   ar
    23    24    25   ar
    24    25    26   ar
    25    26    27    1
    26    26    28   ar
    27    28    29   ar
    28    29    30   ar
    29    30    31   ar
    30    31    32   ar
    31    32    33    1
    32    33    34    1
    33     6     7   ar
    34     7     8   ar
    35     8    13    1
    36    13    14    1
    37    14    15    1
    38     8     9   ar
    39     9     4   ar
    40    40    35   ar
    41    32    22   ar
    42    30    24   ar
    43     2     3    1
@<TRIPOS>MOLECULE
*****
 40 43 0 0 0
SMALL
GASTEIGER

@<TRIPOS>ATOM
      1 C         142.6262  142.9868  164.3181 C.3     1  UNL1        0.1159
      2 O         143.2735  144.0450  163.4748 O.3     1  UNL1       -0.3820
      3 H         144.1431  144.2655  163.8438 H       1  UNL1        0.2107
      4 C         141.1025  139.4990  165.4421 C.ar    1  UNL1        0.1070
      5 C         141.7498  140.5572  164.5988 C.ar    1  UNL1        0.0235
      6 C         141.9789  141.9286  165.1615 C.ar    1  UNL1        0.0064
      7 C         141.5608  142.2418  166.5675 C.ar    1  UNL1        0.0235
      8 C         140.9135  141.1836  167.4108 C.ar    1  UNL1        0.1070
      9 N         140.6844  139.8122  166.8481 N.ar    1  UNL1       -0.2330
     10 S         140.8734  138.1275  164.8793 S.3     1  UNL1       -0.0950
     11 C         138.8550  138.6456  163.3277 C.3     1  UNL1        0.0130
     12 C         139.5269  137.7568  164.3319 C.3     1  UNL1        0.0637
     13 S         140.4954  141.4968  168.8170 S.3     1  UNL1       -0.0950
     14 C         141.1642  142.6097  169.5680 C.3     1  UNL1        0.0637
     15 C         140.4195  143.8822  169.8436 C.3     1  UNL1        0.0130
     16 C         143.8236  142.9743  165.2215 C.3     1  UNL1        0.0491
     17 C         145.1537  142.5201  164.6974 C.3     1  UNL1        0.0750
     18 N         145.2230  141.4210  163.6791 N.3     1  UNL1       -0.2702
     19 C         145.3320  141.7553  162.2209 C.3     1  UNL1        0.0897
     20 C         145.1832  139.9875  164.1189 C.3     1  UNL1        0.0897
     21 C         141.4288  142.9994  163.4148 C.3     1  UNL1        0.0776
     22 C         141.5804  142.6512  161.9636 C.ar    1  UNL1        0.0373
     23 C         141.7718  141.2217  161.5514 C.ar    1  UNL1        0.0023
     24 C         141.9234  140.8735  160.1002 C.ar    1  UNL1        0.0181
     25 C         142.1149  139.4441  159.6879 C.ar    1  UNL1        0.0082
     26 C         142.2664  139.0959  158.2368 C.ar    1  UNL1        0.0347
     27 BR        142.4579  137.6664  157.8245 Br      1  UNL1       -0.0490
     28 C         142.2265  140.1772  157.1980 C.ar    1  UNL1        0.0082
     29 C         142.0351  141.6066  157.6102 C.ar    1  UNL1        0.0197
     30 C         141.8835  141.9548  159.0613 C.ar    1  UNL1        0.0844
     31 N         141.6920  143.3843  159.4737 N.ar    1  UNL1       -0.2119
     32 C         141.5405  143.7324  160.9248 C.ar    1  UNL1        0.2211
     33 O         141.3490  145.1620  161.3371 O.3     1  UNL1       -0.4563
     34 C         140.0041  145.8104  161.1929 C.3     1  UNL1        0.2542
     35 C         140.0798  143.3601  163.9626 C.ar    1  UNL1       -0.0157
     36 C         138.9048  142.4614  163.7145 C.ar    1  UNL1       -0.0039
     37 C         137.5557  142.8221  164.2623 C.ar    1  UNL1       -0.0003
     38 C         137.3818  144.0816  165.0582 C.ar    1  UNL1       -0.0000
     39 C         138.5569  144.9803  165.3063 C.ar    1  UNL1       -0.0003
     40 C         139.9058  144.6196  164.7585 C.ar    1  UNL1       -0.0039
@<TRIPOS>BOND
     1    11    12    1
     2    12    10    1
     3    10     4    1
     4     4     5   ar
     5     5     6   ar
     6     6     1    1
     7     1     2    1
     8     1    16    1
     9    16    17    1
    10    17    18    1
    11    18    19    1
    12    18    20    1
    13     1    21    1
    14    21    35    1
    15    35    36   ar
    16    36    37   ar
    17    37    38   ar
    18    38    39   ar
    19    39    40   ar
    20    21    22    1
    21    22    23   ar
    22    23    24   ar
    23    24    25   ar
    24    25    26   ar
    25    26    27    1
    26    26    28   ar
    27    28    29   ar
    28    29    30   ar
    29    30    31   ar
    30    31    32   ar
    31    32    33    1
    32    33    34    1
    33     6     7   ar
    34     7     8   ar
    35     8    13    1
    36    13    14    1
    37    14    15    1
    38     8     9   ar
    39     9     4   ar
    40    40    35   ar
    41    32    22   ar
    42    30    24   ar
    43     2     3    1
@<TRIPOS>MOLECULE
*****
 40 43 0 0 0
SMALL
GASTEIGER

@<TRIPOS>ATOM
      1 C         142.9964  140.8751  163.5286 C.3     1  UNL1        0.1159
      2 O         143.8729  140.1270  162.5683 O.3     1  UNL1       -0.3820
      3 H         144.8039  140.2843  162.7905 H       1  UNL1        0.2107
      4 C         141.2111  141.9790  166.8967 C.ar    1  UNL1        0.1070
      5 C         142.0876  141.2310  165.9364 C.ar    1  UNL1        0.0235
      6 C         142.1199  141.6231  164.4890 C.ar    1  UNL1        0.0064
      7 C         141.2758  142.7633  164.0018 C.ar    1  UNL1        0.0235
      8 C         140.3993  143.5114  164.9622 C.ar    1  UNL1        0.1070
      9 N         140.3670  143.1192  166.4096 N.ar    1  UNL1       -0.2330
     10 S         141.1788  141.5868  168.3442 S.3     1  UNL1       -0.0950
     11 C         139.2757  139.8659  167.9358 C.3     1  UNL1        0.0130
     12 C         140.0516  140.7475  168.8688 C.3     1  UNL1        0.0637
     13 S         139.5552  144.6517  164.4750 S.3     1  UNL1       -0.0950
     14 C         138.5849  144.4397  163.3509 C.3     1  UNL1        0.0637
     15 C         137.7511  143.1936  163.3047 C.3     1  UNL1        0.0130
     16 C         144.2136  141.3975  164.2326 C.3     1  UNL1        0.0491
     17 C         145.2067  142.2399  163.4883 C.3     1  UNL1        0.0750
     18 N         144.7425  143.1591  162.3977 N.3     1  UNL1       -0.2702
     19 C         144.1321  144.4849  162.7434 C.3     1  UNL1        0.0897
     20 C         144.8887  142.7526  160.9612 C.3     1  UNL1        0.0897
     21 C         141.7792  140.3526  162.8247 C.3     1  UNL1        0.0776
     22 C         141.5038  140.7531  161.4056 C.ar    1  UNL1        0.0373
     23 C         141.2816  142.1965  161.0633 C.ar    1  UNL1        0.0023
     24 C         141.0062  142.5970  159.6441 C.ar    1  UNL1        0.0181
     25 C         140.7840  144.0404  159.3018 C.ar    1  UNL1        0.0082
     26 C         140.5086  144.4408  157.8828 C.ar    1  UNL1        0.0347
     27 BR        140.2864  145.8842  157.5404 Br      1  UNL1       -0.0490
     28 C         140.4553  143.3978  156.8060 C.ar    1  UNL1        0.0082
     29 C         140.6775  141.9544  157.1484 C.ar    1  UNL1        0.0197
     30 C         140.9529  141.5540  158.5674 C.ar    1  UNL1        0.0844
     31 N         141.1751  140.1105  158.9098 N.ar    1  UNL1       -0.2119
     32 C         141.4505  139.7101  160.3288 C.ar    1  UNL1        0.2211
     33 O         141.6727  138.2667  160.6712 O.3     1  UNL1       -0.4563
     34 C         142.9672  137.6008  160.3097 C.3     1  UNL1        0.2542
     35 C         140.8375  139.4297  163.5398 C.ar    1  UNL1       -0.0157
     36 C         139.3891  139.7949  163.6768 C.ar    1  UNL1       -0.0039
     37 C         138.4473  138.8720  164.3919 C.ar    1  UNL1       -0.0003
     38 C         138.9540  137.5840  164.9700 C.ar    1  UNL1       -0.0000
     39 C         140.4025  137.2188  164.8330 C.ar    1  UNL1       -0.0003
     40 C         141.3442  138.1417  164.1179 C.ar    1  UNL1       -0.0039
@<TRIPOS>BOND
     1    11    12    1
     2    12    10    1
     3    10     4    1
     4     4     5   ar
     5     5     6   ar
     6     6     1    1
     7     1     2    1
     8     1    16    1
     9    16    17    1
    10    17    18    1
    11    18    19    1
    12    18    20    1
    13     1    21    1
    14    21    35    1
    15    35    36   ar
    16    36    37   ar
    17    37    38   ar
    18    38    39   ar
    19    39    40   ar
    20    21    22    1
    21    22    23   ar
    22    23    24   ar
    23    24    25   ar
    24    25    26   ar
    25    26    27    1
    26    26    28   ar
    27    28    29   ar
    28    29    30   ar
    29    30    31   ar
    30    31    32   ar
    31    32    33    1
    32    33    34    1
    33     6     7   ar
    34     7     8   ar
    35     8    13    1
    36    13    14    1
    37    14    15    1
    38     8     9   ar
    39     9     4   ar
    40    40    35   ar
    41    32    22   ar
    42    30    24   ar
    43     2     3    1
@<TRIPOS>MOLECULE
*****
 40 43 0 0 0
SMALL
GASTEIGER

@<TRIPOS>ATOM
      1 C         142.6019  142.9613  164.3428 C.3     1  UNL1        0.1159
      2 O         143.2473  144.0418  163.5267 O.3     1  UNL1       -0.3820
      3 H         144.1109  144.2634  163.9088 H       1  UNL1        0.2107
      4 C         140.8171  141.0999  167.3593 C.ar    1  UNL1        0.1070
      5 C         141.4624  142.1803  166.5432 C.ar    1  UNL1        0.0235
      6 C         141.9566  141.8808  165.1590 C.ar    1  UNL1        0.0064
      7 C         141.8053  140.5009  164.5909 C.ar    1  UNL1        0.0235
      8 C         141.1600  139.4204  165.4070 C.ar    1  UNL1        0.1070
      9 N         140.6658  139.7199  166.7912 N.ar    1  UNL1       -0.2330
     10 S         140.3229  141.3994  168.7436 S.3     1  UNL1       -0.0950
     11 C         141.6828  143.2054  170.0239 C.3     1  UNL1        0.0130
     12 C         140.4386  142.7888  169.2969 C.3     1  UNL1        0.0637
     13 S         141.0087  138.0404  164.8389 S.3     1  UNL1       -0.0950
     14 C         139.8678  137.7302  163.9157 C.3     1  UNL1        0.0637
     15 C         140.0245  137.9278  162.4371 C.3     1  UNL1        0.0130
     16 C         143.7902  142.9428  165.2580 C.3     1  UNL1        0.0491
     17 C         145.1348  142.5348  164.7332 C.3     1  UNL1        0.0750
     18 N         145.2403  141.4478  163.7049 N.3     1  UNL1       -0.2702
     19 C         145.2513  140.0100  164.1320 C.3     1  UNL1        0.0897
     20 C         145.3348  141.7987  162.2496 C.3     1  UNL1        0.0897
     21 C         141.4136  142.9798  163.4276 C.3     1  UNL1        0.0776
     22 C         141.5791  142.6374  161.9766 C.ar    1  UNL1        0.0373
     23 C         141.7692  141.2091  161.5599 C.ar    1  UNL1        0.0023
     24 C         141.9347  140.8667  160.1089 C.ar    1  UNL1        0.0181
     25 C         142.1247  139.4384  159.6922 C.ar    1  UNL1        0.0082
     26 C         142.2902  139.0961  158.2413 C.ar    1  UNL1        0.0347
     27 BR        142.4802  137.6676  157.8245 Br      1  UNL1       -0.0490
     28 C         142.2657  140.1821  157.2069 C.ar    1  UNL1        0.0082
     29 C         142.0757  141.6105  157.6236 C.ar    1  UNL1        0.0197
     30 C         141.9102  141.9528  159.0745 C.ar    1  UNL1        0.0844
     31 N         141.7201  143.3812  159.4913 N.ar    1  UNL1       -0.2119
     32 C         141.5546  143.7235  160.9422 C.ar    1  UNL1        0.2211
     33 O         141.3646  145.1519  161.3589 O.3     1  UNL1       -0.4563
     34 C         140.0292  145.8125  161.1852 C.3     1  UNL1        0.2542
     35 C         140.0599  143.3406  163.9634 C.ar    1  UNL1       -0.0157
     36 C         138.8908  142.4329  163.7203 C.ar    1  UNL1       -0.0039
     37 C         137.5369  142.7936  164.2561 C.ar    1  UNL1       -0.0003
     38 C         137.3523  144.0622  165.0350 C.ar    1  UNL1       -0.0000
     39 C         138.5214  144.9699  165.2781 C.ar    1  UNL1       -0.0003
     40 C         139.8752  144.6091  164.7423 C.ar    1  UNL1       -0.0039
@<TRIPOS>BOND
     1    11    12    1
     2    12    10    1
     3    10     4    1
     4     4     5   ar
     5     5     6   ar
     6     6     1    1
     7     1     2    1
     8     1    16    1
     9    16    17    1
    10    17    18    1
    11    18    19    1
    12    18    20    1
    13     1    21    1
    14    21    35    1
    15    35    36   ar
    16    36    37   ar
    17    37    38   ar
    18    38    39   ar
    19    39    40   ar
    20    21    22    1
    21    22    23   ar
    22    23    24   ar
    23    24    25   ar
    24    25    26   ar
    25    26    27    1
    26    26    28   ar
    27    28    29   ar
    28    29    30   ar
    29    30    31   ar
    30    31    32   ar
    31    32    33    1
    32    33    34    1
    33     6     7   ar
    34     7     8   ar
    35     8    13    1
    36    13    14    1
    37    14    15    1
    38     8     9   ar
    39     9     4   ar
    40    40    35   ar
    41    32    22   ar
    42    30    24   ar
    43     2     3    1
