@<TRIPOS>MOLECULE
*****
 29 33 0 0 0
SMALL
GASTEIGER

@<TRIPOS>ATOM
      1 C         141.3258  139.9310  169.8121 C.3     1  UNL1        0.0351
      2 C         141.6118  140.3778  168.4090 C.ar    1  UNL1        0.0259
      3 C         140.9498  141.6087  167.8642 C.ar    1  UNL1        0.1510
      4 F         140.0018  142.3928  168.7226 F       1  UNL1       -0.2031
      5 C         141.2357  142.0556  166.4612 C.ar    1  UNL1        0.0784
      6 C         142.1836  141.2716  165.6029 C.ar    1  UNL1        0.0357
      7 C         142.8456  140.0407  166.1476 C.ar    1  UNL1        0.0800
      8 C         142.5597  139.5938  167.5506 C.ar    1  UNL1        0.0970
      9 N         143.3554  138.3494  167.8120 N.ar    1  UNL1       -0.2242
     10 C         144.1330  138.0272  166.5705 C.ar    1  UNL1        0.1785
     11 N         143.8180  139.0725  165.5418 N.ar    1  UNL1       -0.3090
     12 N         140.5737  143.2865  165.9165 N.pl3   1  UNL1       -0.2962
     13 H         140.0318  143.8569  166.5083 H       1  UNL1        0.1537
     14 C         140.7373  143.6482  164.4700 C.ar    1  UNL1        0.1322
     15 C         141.8694  144.5344  164.0418 C.ar    1  UNL1        0.0345
     16 C         142.0330  144.8961  162.5953 C.ar    1  UNL1        0.0060
     17 C         141.0646  144.3716  161.5769 C.ar    1  UNL1        0.0384
     18 C         139.9326  143.4855  162.0050 C.ar    1  UNL1        0.1018
     19 N         139.7690  143.1238  163.4515 N.ar    1  UNL1       -0.2290
     20 C         141.2282  144.7333  160.1304 C.ar    1  UNL1        0.1017
     21 C         140.2467  145.5035  159.2977 C.ar    1  UNL1        0.0965
     22 N         140.8139  145.6346  157.9152 N.ar    1  UNL1       -0.3059
     23 C         140.1633  146.3323  156.7577 C.3     1  UNL1        0.1321
     24 C         142.1461  144.9455  157.8936 C.ar    1  UNL1        0.1786
     25 N         142.4021  144.3884  159.2627 N.ar    1  UNL1       -0.2238
     26 C         144.3772  139.1380  164.1515 C.3     1  UNL1        0.1075
     27 C         144.9322  140.4288  163.6263 C.3     1  UNL1        0.0227
     28 C         145.0938  141.4130  162.5059 C.3     1  UNL1        0.0020
     29 C         145.7317  141.6803  163.8370 C.3     1  UNL1        0.0020
@<TRIPOS>BOND
     1     1     2    1
     2     2     3   ar
     3     3     4    1
     4     3     5   ar
     5     5    12    1
     6    12    14    1
     7    14    15   ar
     8    15    16   ar
     9    16    17   ar
    10    17    20    1
    11    20    21   ar
    12    21    22   ar
    13    22    23    1
    14    22    24   ar
    15    24    25   ar
    16    17    18   ar
    17    18    19   ar
    18     5     6   ar
    19     6     7   ar
    20     7     8   ar
    21     8     9   ar
    22     9    10   ar
    23    10    11   ar
    24    11    26    1
    25    26    27    1
    26    27    28    1
    27    28    29    1
    28     8     2   ar
    29    29    27    1
    30    19    14   ar
    31    11     7   ar
    32    25    20   ar
    33    12    13    1
@<TRIPOS>MOLECULE
*****
 29 33 0 0 0
SMALL
GASTEIGER

@<TRIPOS>ATOM
      1 C         139.7377  141.1195  169.9798 C.3     1  UNL1        0.0351
      2 C         140.0303  141.0253  168.5116 C.ar    1  UNL1        0.0259
      3 C         141.0581  141.9255  167.8924 C.ar    1  UNL1        0.1510
      4 F         141.7933  142.9199  168.7415 F       1  UNL1       -0.2031
      5 C         141.3508  141.8314  166.4243 C.ar    1  UNL1        0.0784
      6 C         140.6157  140.8371  165.5752 C.ar    1  UNL1        0.0357
      7 C         139.5879  139.9369  166.1943 C.ar    1  UNL1        0.0800
      8 C         139.2952  140.0310  167.6625 C.ar    1  UNL1        0.0970
      9 N         138.2367  139.0199  167.9899 N.ar    1  UNL1       -0.2242
     10 C         137.8752  138.3009  166.7241 C.ar    1  UNL1        0.1785
     11 N         138.7103  138.8676  165.6143 N.ar    1  UNL1       -0.3090
     12 N         142.3786  142.7316  165.8052 N.pl3   1  UNL1       -0.2962
     13 H         143.1558  143.0272  166.3324 H       1  UNL1        0.1537
     14 C         142.2223  143.1814  164.3828 C.ar    1  UNL1        0.1322
     15 C         141.1759  144.1958  164.0276 C.ar    1  UNL1        0.0345
     16 C         141.0196  144.6456  162.6052 C.ar    1  UNL1        0.0060
     17 C         141.9097  144.0810  161.5379 C.ar    1  UNL1        0.0384
     18 C         142.9560  143.0667  161.8930 C.ar    1  UNL1        0.1018
     19 N         143.1124  142.6169  163.3155 N.ar    1  UNL1       -0.2290
     20 C         141.7534  144.5308  160.1155 C.ar    1  UNL1        0.1017
     21 C         140.6508  145.3957  159.5805 C.ar    1  UNL1        0.0965
     22 N         140.8881  145.5942  158.1127 N.ar    1  UNL1       -0.3059
     23 C         140.0273  146.3943  157.1806 C.3     1  UNL1        0.1321
     24 C         142.1374  144.8520  157.7407 C.ar    1  UNL1        0.1786
     25 N         142.6722  144.1948  158.9785 N.ar    1  UNL1       -0.2238
     26 C         138.6740  138.4401  164.1770 C.3     1  UNL1        0.1075
     27 C         138.1897  139.3917  163.1234 C.3     1  UNL1        0.0227
     28 C         137.7778  139.6609  161.7064 C.3     1  UNL1        0.0020
     29 C         137.7625  140.7705  162.7157 C.3     1  UNL1        0.0020
@<TRIPOS>BOND
     1     1     2    1
     2     2     3   ar
     3     3     4    1
     4     3     5   ar
     5     5    12    1
     6    12    14    1
     7    14    15   ar
     8    15    16   ar
     9    16    17   ar
    10    17    20    1
    11    20    21   ar
    12    21    22   ar
    13    22    23    1
    14    22    24   ar
    15    24    25   ar
    16    17    18   ar
    17    18    19   ar
    18     5     6   ar
    19     6     7   ar
    20     7     8   ar
    21     8     9   ar
    22     9    10   ar
    23    10    11   ar
    24    11    26    1
    25    26    27    1
    26    27    28    1
    27    28    29    1
    28     8     2   ar
    29    29    27    1
    30    19    14   ar
    31    11     7   ar
    32    25    20   ar
    33    12    13    1
@<TRIPOS>MOLECULE
*****
 29 33 0 0 0
SMALL
GASTEIGER

@<TRIPOS>ATOM
      1 C         139.0514  140.3180  169.8486 C.3     1  UNL1        0.0351
      2 C         139.5814  140.2319  168.4480 C.ar    1  UNL1        0.0259
      3 C         138.8165  139.4767  167.4017 C.ar    1  UNL1        0.1510
      4 F         137.5215  138.8075  167.7562 F       1  UNL1       -0.2031
      5 C         139.3464  139.3905  166.0012 C.ar    1  UNL1        0.0784
      6 C         140.6412  140.0596  165.6467 C.ar    1  UNL1        0.0357
      7 C         141.4062  140.8149  166.6929 C.ar    1  UNL1        0.0800
      8 C         140.8762  140.9010  168.0936 C.ar    1  UNL1        0.0970
      9 N         141.8434  141.7097  168.9062 N.ar    1  UNL1       -0.2242
     10 C         142.9712  142.1234  168.0079 C.ar    1  UNL1        0.1785
     11 N         142.7009  141.5704  166.6400 N.ar    1  UNL1       -0.3090
     12 N         138.5815  138.6353  164.9549 N.pl3   1  UNL1       -0.2962
     13 H         138.1541  137.7776  165.1807 H       1  UNL1        0.1537
     14 C         138.4679  139.1868  163.5647 C.ar    1  UNL1        0.1322
     15 C         139.0205  138.4142  162.4037 C.ar    1  UNL1        0.0345
     16 C         138.9069  138.9658  161.0134 C.ar    1  UNL1        0.0060
     17 C         138.2406  140.2901  160.7841 C.ar    1  UNL1        0.0384
     18 C         137.6881  141.0627  161.9449 C.ar    1  UNL1        0.1018
     19 N         137.8017  140.5110  163.3353 N.ar    1  UNL1       -0.2290
     20 C         138.1270  140.8416  159.3938 C.ar    1  UNL1        0.1017
     21 C         138.6839  142.1500  158.9162 C.ar    1  UNL1        0.0965
     22 N         138.3377  142.2987  157.4642 N.ar    1  UNL1       -0.3059
     23 C         138.6989  143.4599  156.5861 C.3     1  UNL1        0.1321
     24 C         137.5668  141.0823  157.0446 C.ar    1  UNL1        0.1786
     25 N         137.4366  140.1818  158.2372 N.ar    1  UNL1       -0.2238
     26 C         143.5724  141.7426  165.4313 C.3     1  UNL1        0.1075
     27 C         144.0314  140.5407  164.6601 C.3     1  UNL1        0.0227
     28 C         145.0922  139.5294  164.3408 C.3     1  UNL1        0.0020
     29 C         143.7654  139.4701  163.6437 C.3     1  UNL1        0.0020
@<TRIPOS>BOND
     1     1     2    1
     2     2     3   ar
     3     3     4    1
     4     3     5   ar
     5     5    12    1
     6    12    14    1
     7    14    15   ar
     8    15    16   ar
     9    16    17   ar
    10    17    20    1
    11    20    21   ar
    12    21    22   ar
    13    22    23    1
    14    22    24   ar
    15    24    25   ar
    16    17    18   ar
    17    18    19   ar
    18     5     6   ar
    19     6     7   ar
    20     7     8   ar
    21     8     9   ar
    22     9    10   ar
    23    10    11   ar
    24    11    26    1
    25    26    27    1
    26    27    28    1
    27    28    29    1
    28     8     2   ar
    29    29    27    1
    30    19    14   ar
    31    11     7   ar
    32    25    20   ar
    33    12    13    1
@<TRIPOS>MOLECULE
*****
 29 33 0 0 0
SMALL
GASTEIGER

@<TRIPOS>ATOM
      1 C         139.1835  140.2840  169.9711 C.3     1  UNL1        0.0351
      2 C         139.6576  140.2588  168.5482 C.ar    1  UNL1        0.0259
      3 C         138.8714  139.5159  167.5088 C.ar    1  UNL1        0.1510
      4 F         137.6112  138.7983  167.8924 F       1  UNL1       -0.2031
      5 C         139.3454  139.4906  166.0859 C.ar    1  UNL1        0.0784
      6 C         140.6055  140.2081  165.7023 C.ar    1  UNL1        0.0357
      7 C         141.3917  140.9510  166.7416 C.ar    1  UNL1        0.0800
      8 C         140.9177  140.9763  168.1645 C.ar    1  UNL1        0.0970
      9 N         141.8948  141.7860  168.9643 N.ar    1  UNL1       -0.2242
     10 C         142.9727  142.2611  168.0356 C.ar    1  UNL1        0.1785
     11 N         142.6617  141.7451  166.6619 N.ar    1  UNL1       -0.3090
     12 N         138.5593  138.7477  165.0465 N.pl3   1  UNL1       -0.2962
     13 H         138.1084  137.9042  165.2800 H       1  UNL1        0.1537
     14 C         138.4602  139.2901  163.6516 C.ar    1  UNL1        0.1322
     15 C         139.0142  138.5043  162.5001 C.ar    1  UNL1        0.0345
     16 C         138.9151  139.0467  161.1052 C.ar    1  UNL1        0.0060
     17 C         138.2620  140.3749  160.8616 C.ar    1  UNL1        0.0384
     18 C         137.7080  141.1607  162.0129 C.ar    1  UNL1        0.1018
     19 N         137.8071  140.6183  163.4079 N.ar    1  UNL1       -0.2290
     20 C         138.1629  140.9173  159.4666 C.ar    1  UNL1        0.1017
     21 C         138.6819  142.2442  158.9976 C.ar    1  UNL1        0.0965
     22 N         138.3672  142.3750  157.5368 N.ar    1  UNL1       -0.3059
     23 C         138.7065  143.5462  156.6632 C.3     1  UNL1        0.1321
     24 C         137.6536  141.1290  157.1030 C.ar    1  UNL1        0.1786
     25 N         137.5273  140.2281  158.2957 N.ar    1  UNL1       -0.2238
     26 C         143.4777  141.9816  165.4257 C.3     1  UNL1        0.1075
     27 C         143.3153  143.2567  164.6524 C.3     1  UNL1        0.0227
     28 C         142.4291  144.2892  164.0211 C.3     1  UNL1        0.0020
     29 C         143.9203  144.4326  163.9445 C.3     1  UNL1        0.0020
@<TRIPOS>BOND
     1     1     2    1
     2     2     3   ar
     3     3     4    1
     4     3     5   ar
     5     5    12    1
     6    12    14    1
     7    14    15   ar
     8    15    16   ar
     9    16    17   ar
    10    17    20    1
    11    20    21   ar
    12    21    22   ar
    13    22    23    1
    14    22    24   ar
    15    24    25   ar
    16    17    18   ar
    17    18    19   ar
    18     5     6   ar
    19     6     7   ar
    20     7     8   ar
    21     8     9   ar
    22     9    10   ar
    23    10    11   ar
    24    11    26    1
    25    26    27    1
    26    27    28    1
    27    28    29    1
    28     8     2   ar
    29    29    27    1
    30    19    14   ar
    31    11     7   ar
    32    25    20   ar
    33    12    13    1
@<TRIPOS>MOLECULE
*****
 29 33 0 0 0
SMALL
GASTEIGER

@<TRIPOS>ATOM
      1 C         141.7439  141.9335  170.5563 C.3     1  UNL1        0.0351
      2 C         141.5127  141.8154  169.0790 C.ar    1  UNL1        0.0259
      3 C         140.6953  142.8494  168.3628 C.ar    1  UNL1        0.1510
      4 F         140.1092  144.0015  169.1240 F       1  UNL1       -0.2031
      5 C         140.4640  142.7315  166.8855 C.ar    1  UNL1        0.0784
      6 C         141.0501  141.5795  166.1242 C.ar    1  UNL1        0.0357
      7 C         141.8674  140.5455  166.8403 C.ar    1  UNL1        0.0800
      8 C         142.0987  140.6635  168.3177 C.ar    1  UNL1        0.0970
      9 N         142.9407  139.4997  168.7495 N.ar    1  UNL1       -0.2242
     10 C         143.2299  138.6624  167.5390 C.ar    1  UNL1        0.1785
     11 N         142.5665  139.3087  166.3590 N.ar    1  UNL1       -0.3090
     12 N         139.6467  143.7655  166.1693 N.pl3   1  UNL1       -0.2962
     13 H         139.0202  144.3335  166.6733 H       1  UNL1        0.1537
     14 C         139.7840  143.9339  164.6851 C.ar    1  UNL1        0.1322
     15 C         140.9468  144.6953  164.1210 C.ar    1  UNL1        0.0345
     16 C         141.0841  144.8638  162.6368 C.ar    1  UNL1        0.0060
     17 C         140.0585  144.2708  161.7167 C.ar    1  UNL1        0.0384
     18 C         138.8957  143.5094  162.2807 C.ar    1  UNL1        0.1018
     19 N         138.7584  143.3410  163.7650 N.ar    1  UNL1       -0.2290
     20 C         140.1957  144.4392  160.2325 C.ar    1  UNL1        0.1017
     21 C         141.1471  145.3655  159.5346 C.ar    1  UNL1        0.0965
     22 N         140.9451  145.2098  158.0564 N.ar    1  UNL1       -0.3059
     23 C         141.6887  145.9471  156.9825 C.3     1  UNL1        0.1321
     24 C         139.8690  144.1873  157.8408 C.ar    1  UNL1        0.1786
     25 N         139.4059  143.7111  159.1857 N.ar    1  UNL1       -0.2238
     26 C         142.5969  138.8065  164.9459 C.3     1  UNL1        0.1075
     27 C         141.4318  138.0367  164.3983 C.3     1  UNL1        0.0227
     28 C         140.8226  137.1998  163.3127 C.3     1  UNL1        0.0020
     29 C         140.0230  137.5402  164.5354 C.3     1  UNL1        0.0020
@<TRIPOS>BOND
     1     1     2    1
     2     2     3   ar
     3     3     4    1
     4     3     5   ar
     5     5    12    1
     6    12    14    1
     7    14    15   ar
     8    15    16   ar
     9    16    17   ar
    10    17    20    1
    11    20    21   ar
    12    21    22   ar
    13    22    23    1
    14    22    24   ar
    15    24    25   ar
    16    17    18   ar
    17    18    19   ar
    18     5     6   ar
    19     6     7   ar
    20     7     8   ar
    21     8     9   ar
    22     9    10   ar
    23    10    11   ar
    24    11    26    1
    25    26    27    1
    26    27    28    1
    27    28    29    1
    28     8     2   ar
    29    29    27    1
    30    19    14   ar
    31    11     7   ar
    32    25    20   ar
    33    12    13    1
@<TRIPOS>MOLECULE
*****
 29 33 0 0 0
SMALL
GASTEIGER

@<TRIPOS>ATOM
      1 C         141.9358  141.1784  170.8983 C.3     1  UNL1        0.0351
      2 C         141.8493  141.2701  169.4035 C.ar    1  UNL1        0.0259
      3 C         142.9191  141.9855  168.6329 C.ar    1  UNL1        0.1510
      4 F         144.0753  142.6092  169.3570 F       1  UNL1       -0.2031
      5 C         142.8327  142.0772  167.1383 C.ar    1  UNL1        0.0784
      6 C         141.6766  141.4536  166.4141 C.ar    1  UNL1        0.0357
      7 C         140.6068  140.7382  167.1847 C.ar    1  UNL1        0.0800
      8 C         140.6932  140.6464  168.6794 C.ar    1  UNL1        0.0970
      9 N         139.4977  139.8828  169.1669 N.ar    1  UNL1       -0.2242
     10 C         138.6724  139.5026  167.9734 C.ar    1  UNL1        0.1785
     11 N         139.3579  140.0312  166.7483 N.ar    1  UNL1       -0.3090
     12 N         143.9025  142.7927  166.3676 N.pl3   1  UNL1       -0.2962
     13 H         144.6620  143.2009  166.8427 H       1  UNL1        0.1537
     14 C         143.8149  142.8861  164.8731 C.ar    1  UNL1        0.1322
     15 C         143.1053  144.0429  164.2341 C.ar    1  UNL1        0.0345
     16 C         143.0177  144.1363  162.7396 C.ar    1  UNL1        0.0060
     17 C         143.6399  143.0728  161.8840 C.ar    1  UNL1        0.0384
     18 C         144.3495  141.9160  162.5228 C.ar    1  UNL1        0.1018
     19 N         144.4370  141.8226  164.0174 N.ar    1  UNL1       -0.2290
     20 C         143.5523  143.1661  160.3894 C.ar    1  UNL1        0.1017
     21 C         144.4007  142.4134  159.4078 C.ar    1  UNL1        0.0965
     22 N         143.9737  142.8107  158.0258 N.ar    1  UNL1       -0.3059
     23 C         144.5567  142.2994  156.7418 C.3     1  UNL1        0.1321
     24 C         142.8615  143.8090  158.1534 C.ar    1  UNL1        0.1786
     25 N         142.6010  144.0287  159.6142 N.ar    1  UNL1       -0.2238
     26 C         138.8786  139.8795  165.3351 C.3     1  UNL1        0.1075
     27 C         139.2812  138.6788  164.5314 C.3     1  UNL1        0.0227
     28 C         139.0514  137.7548  163.3723 C.3     1  UNL1        0.0020
     29 C         140.2085  137.5230  164.2983 C.3     1  UNL1        0.0020
@<TRIPOS>BOND
     1     1     2    1
     2     2     3   ar
     3     3     4    1
     4     3     5   ar
     5     5    12    1
     6    12    14    1
     7    14    15   ar
     8    15    16   ar
     9    16    17   ar
    10    17    20    1
    11    20    21   ar
    12    21    22   ar
    13    22    23    1
    14    22    24   ar
    15    24    25   ar
    16    17    18   ar
    17    18    19   ar
    18     5     6   ar
    19     6     7   ar
    20     7     8   ar
    21     8     9   ar
    22     9    10   ar
    23    10    11   ar
    24    11    26    1
    25    26    27    1
    26    27    28    1
    27    28    29    1
    28     8     2   ar
    29    29    27    1
    30    19    14   ar
    31    11     7   ar
    32    25    20   ar
    33    12    13    1
@<TRIPOS>MOLECULE
*****
 29 33 0 0 0
SMALL
GASTEIGER

@<TRIPOS>ATOM
      1 C         143.0863  143.1119  157.0796 C.3     1  UNL1        0.0351
      2 C         142.8908  143.3611  158.5458 C.ar    1  UNL1        0.0259
      3 C         143.7502  142.6498  159.5486 C.ar    1  UNL1        0.1510
      4 F         144.8050  141.6893  159.0851 F       1  UNL1       -0.2031
      5 C         143.5547  142.8989  161.0147 C.ar    1  UNL1        0.0784
      6 C         142.4999  143.8594  161.4782 C.ar    1  UNL1        0.0357
      7 C         141.6405  144.5707  160.4755 C.ar    1  UNL1        0.0800
      8 C         141.8359  144.3216  159.0093 C.ar    1  UNL1        0.0970
      9 N         140.8453  145.1626  158.2601 N.ar    1  UNL1       -0.2242
     10 C         140.0376  145.9315  159.2633 C.ar    1  UNL1        0.1785
     11 N         140.5290  145.5657  160.6325 N.ar    1  UNL1       -0.3090
     12 N         144.4141  142.1876  162.0175 N.pl3   1  UNL1       -0.2962
     13 H         145.2236  141.7113  161.7224 H       1  UNL1        0.1537
     14 C         144.0401  142.2020  163.4701 C.ar    1  UNL1        0.1322
     15 C         144.5831  143.2689  164.3739 C.ar    1  UNL1        0.0345
     16 C         144.2091  143.2833  165.8265 C.ar    1  UNL1        0.0060
     17 C         143.2919  142.2307  166.3752 C.ar    1  UNL1        0.0384
     18 C         142.7489  141.1638  165.4714 C.ar    1  UNL1        0.1018
     19 N         143.1230  141.1495  164.0188 N.ar    1  UNL1       -0.2290
     20 C         142.9179  142.2451  167.8277 C.ar    1  UNL1        0.1017
     21 C         141.5904  141.8453  168.4003 C.ar    1  UNL1        0.0965
     22 N         141.6576  142.0149  169.8892 N.ar    1  UNL1       -0.3059
     23 C         140.5503  141.7299  170.8600 C.3     1  UNL1        0.1321
     24 C         143.0268  142.5195  170.2367 C.ar    1  UNL1        0.1786
     25 N         143.8056  142.6618  168.9627 N.ar    1  UNL1       -0.2238
     26 C         140.0016  146.1009  161.9307 C.3     1  UNL1        0.1075
     27 C         139.1914  145.2175  162.8324 C.3     1  UNL1        0.0227
     28 C         138.8748  144.7038  164.2057 C.3     1  UNL1        0.0020
     29 C         138.1046  144.2009  163.0208 C.3     1  UNL1        0.0020
@<TRIPOS>BOND
     1     1     2    1
     2     2     3   ar
     3     3     4    1
     4     3     5   ar
     5     5    12    1
     6    12    14    1
     7    14    15   ar
     8    15    16   ar
     9    16    17   ar
    10    17    20    1
    11    20    21   ar
    12    21    22   ar
    13    22    23    1
    14    22    24   ar
    15    24    25   ar
    16    17    18   ar
    17    18    19   ar
    18     5     6   ar
    19     6     7   ar
    20     7     8   ar
    21     8     9   ar
    22     9    10   ar
    23    10    11   ar
    24    11    26    1
    25    26    27    1
    26    27    28    1
    27    28    29    1
    28     8     2   ar
    29    29    27    1
    30    19    14   ar
    31    11     7   ar
    32    25    20   ar
    33    12    13    1
@<TRIPOS>MOLECULE
*****
 29 33 0 0 0
SMALL
GASTEIGER

@<TRIPOS>ATOM
      1 C         144.6090  143.6884  165.5582 C.3     1  UNL1        0.0351
      2 C         143.9034  142.5944  164.8129 C.ar    1  UNL1        0.0259
      3 C         144.6673  141.7210  163.8622 C.ar    1  UNL1        0.1510
      4 F         146.1368  141.9416  163.6569 F       1  UNL1       -0.2031
      5 C         143.9617  140.6272  163.1169 C.ar    1  UNL1        0.0784
      6 C         142.4923  140.4066  163.3221 C.ar    1  UNL1        0.0357
      7 C         141.7284  141.2800  164.2728 C.ar    1  UNL1        0.0800
      8 C         142.4340  142.3739  165.0181 C.ar    1  UNL1        0.0970
      9 N         141.4257  143.0704  165.8831 N.ar    1  UNL1       -0.2242
     10 C         140.0971  142.4070  165.6724 C.ar    1  UNL1        0.1785
     11 N         140.2841  141.3004  164.6771 N.ar    1  UNL1       -0.3090
     12 N         144.7256  139.7537  162.1662 N.pl3   1  UNL1       -0.2962
     13 H         145.6802  139.5717  162.3237 H       1  UNL1        0.1537
     14 C         144.0349  139.1577  160.9756 C.ar    1  UNL1        0.1322
     15 C         143.6651  137.7039  160.9729 C.ar    1  UNL1        0.0345
     16 C         142.9744  137.1079  159.7822 C.ar    1  UNL1        0.0060
     17 C         142.6535  137.9657  158.5942 C.ar    1  UNL1        0.0384
     18 C         143.0233  139.4193  158.5968 C.ar    1  UNL1        0.1018
     19 N         143.7140  140.0153  159.7875 N.ar    1  UNL1       -0.2290
     20 C         141.9628  137.3696  157.4035 C.ar    1  UNL1        0.1017
     21 C         142.5395  136.3465  156.4704 C.ar    1  UNL1        0.0965
     22 N         141.5073  136.0366  155.4271 N.ar    1  UNL1       -0.3059
     23 C         141.6625  135.0656  154.2944 C.3     1  UNL1        0.1321
     24 C         140.2927  136.8681  155.7154 C.ar    1  UNL1        0.1786
     25 N         140.5742  137.6920  156.9369 N.ar    1  UNL1       -0.2238
     26 C         139.2146  140.3765  164.1745 C.3     1  UNL1        0.1075
     27 C         138.9128  139.1064  164.9132 C.3     1  UNL1        0.0227
     28 C         139.1077  137.6298  165.0918 C.3     1  UNL1        0.0020
     29 C         138.1951  138.3829  166.0138 C.3     1  UNL1        0.0020
@<TRIPOS>BOND
     1     1     2    1
     2     2     3   ar
     3     3     4    1
     4     3     5   ar
     5     5    12    1
     6    12    14    1
     7    14    15   ar
     8    15    16   ar
     9    16    17   ar
    10    17    20    1
    11    20    21   ar
    12    21    22   ar
    13    22    23    1
    14    22    24   ar
    15    24    25   ar
    16    17    18   ar
    17    18    19   ar
    18     5     6   ar
    19     6     7   ar
    20     7     8   ar
    21     8     9   ar
    22     9    10   ar
    23    10    11   ar
    24    11    26    1
    25    26    27    1
    26    27    28    1
    27    28    29    1
    28     8     2   ar
    29    29    27    1
    30    19    14   ar
    31    11     7   ar
    32    25    20   ar
    33    12    13    1
@<TRIPOS>MOLECULE
*****
 29 33 0 0 0
SMALL
GASTEIGER

@<TRIPOS>ATOM
      1 C         145.2067  142.0474  164.0246 C.3     1  UNL1        0.0351
      2 C         144.1219  141.0511  164.3087 C.ar    1  UNL1        0.0259
      3 C         143.8965  139.9005  163.3731 C.ar    1  UNL1        0.1510
      4 F         144.7560  139.7462  162.1534 F       1  UNL1       -0.2031
      5 C         142.8118  138.9043  163.6571 C.ar    1  UNL1        0.0784
      6 C         141.9523  139.0586  164.8767 C.ar    1  UNL1        0.0357
      7 C         142.1776  140.2091  165.8123 C.ar    1  UNL1        0.0800
      8 C         143.2624  141.2054  165.5283 C.ar    1  UNL1        0.0970
      9 N         143.2494  142.2298  166.6239 N.ar    1  UNL1       -0.2242
     10 C         142.1566  141.8667  167.5851 C.ar    1  UNL1        0.1785
     11 N         141.4942  140.6178  167.0835 N.ar    1  UNL1       -0.3090
     12 N         142.5864  137.7536  162.7215 N.pl3   1  UNL1       -0.2962
     13 H         142.9194  136.8570  162.9547 H       1  UNL1        0.1537
     14 C         141.8537  137.9692  161.4305 C.ar    1  UNL1        0.1322
     15 C         140.3674  138.1712  161.4363 C.ar    1  UNL1        0.0345
     16 C         139.6346  138.3868  160.1453 C.ar    1  UNL1        0.0060
     17 C         140.3883  138.4003  158.8484 C.ar    1  UNL1        0.0384
     18 C         141.8746  138.1983  158.8426 C.ar    1  UNL1        0.1018
     19 N         142.6073  137.9827  160.1336 N.ar    1  UNL1       -0.2290
     20 C         139.6556  138.6159  157.5574 C.ar    1  UNL1        0.1017
     21 C         139.6348  137.6767  156.3881 C.ar    1  UNL1        0.0965
     22 N         138.7814  138.2888  155.3170 N.ar    1  UNL1       -0.3059
     23 C         138.4864  137.6888  153.9743 C.3     1  UNL1        0.1321
     24 C         138.2748  139.6063  155.8245 C.ar    1  UNL1        0.1786
     25 N         138.8151  139.8085  157.2092 N.ar    1  UNL1       -0.2238
     26 C         140.3494  139.9031  167.7382 C.3     1  UNL1        0.1075
     27 C         139.1343  139.5412  166.9366 C.3     1  UNL1        0.0227
     28 C         137.8076  138.8495  166.8292 C.3     1  UNL1        0.0020
     29 C         138.3563  139.6059  165.6558 C.3     1  UNL1        0.0020
@<TRIPOS>BOND
     1     1     2    1
     2     2     3   ar
     3     3     4    1
     4     3     5   ar
     5     5    12    1
     6    12    14    1
     7    14    15   ar
     8    15    16   ar
     9    16    17   ar
    10    17    20    1
    11    20    21   ar
    12    21    22   ar
    13    22    23    1
    14    22    24   ar
    15    24    25   ar
    16    17    18   ar
    17    18    19   ar
    18     5     6   ar
    19     6     7   ar
    20     7     8   ar
    21     8     9   ar
    22     9    10   ar
    23    10    11   ar
    24    11    26    1
    25    26    27    1
    26    27    28    1
    27    28    29    1
    28     8     2   ar
    29    29    27    1
    30    19    14   ar
    31    11     7   ar
    32    25    20   ar
    33    12    13    1
