@<TRIPOS>MOLECULE
*****
 30 33 0 0 0
SMALL
GASTEIGER

@<TRIPOS>ATOM
      1 N         140.1974  142.7400  165.0383 N.3     1  UNL1       -0.2926
      2 H         139.4222  142.4135  164.4614 H       1  UNL1        0.1238
      3 N         142.4052  143.0511  163.2318 N.3     1  UNL1       -0.2740
      4 C         142.6562  142.3080  161.9532 C.3     1  UNL1        0.0589
      5 C         143.9365  142.8201  161.3630 C.3     1  UNL1        0.0174
      6 C         144.4769  143.8798  162.2769 C.3     1  UNL1        0.0174
      7 C         143.5305  144.0225  163.4318 C.3     1  UNL1        0.0589
      8 C         142.4214  143.9491  164.4535 C.3     1  UNL1        0.0317
      9 C         141.3681  142.9343  164.1208 C.3     1  UNL1        0.0571
     10 C         141.4855  142.1137  162.8707 C.3     1  UNL1        0.0317
     11 C         141.2345  142.8568  164.1493 C.3     1  UNL1        0.0896
     12 C         140.3440  144.0163  164.4846 C.3     1  UNL1        0.0897
     13 C         137.9449  144.0898  163.4900 C.3     1  UNL1        0.0897
     14 N         139.3761  144.5383  163.4644 N.3     1  UNL1       -0.2691
     15 C         139.8394  145.5087  162.4187 C.3     1  UNL1        0.0897
     16 C         140.3022  141.7946  166.1982 C.3     1  UNL1        0.0997
     17 C         141.0475  142.2036  167.4340 C.ar    1  UNL1       -0.0037
     18 C         140.3489  142.9847  168.5072 C.ar    1  UNL1       -0.0003
     19 C         141.0942  143.3936  169.7430 C.ar    1  UNL1        0.0294
     20 C         142.5382  143.0215  169.9057 C.ar    1  UNL1        0.1401
     21 F         143.2835  143.4304  171.1415 F       1  UNL1       -0.2042
     22 C         143.2369  142.2404  168.8325 C.ar    1  UNL1        0.0294
     23 C         142.4916  141.8314  167.5966 C.ar    1  UNL1       -0.0003
     24 C         139.6619  140.4404  166.1222 C.ar    1  UNL1       -0.0037
     25 C         140.0509  139.4869  165.0316 C.ar    1  UNL1       -0.0003
     26 C         139.4105  138.1326  164.9556 C.ar    1  UNL1        0.0294
     27 C         138.3810  137.7318  165.9703 C.ar    1  UNL1        0.1401
     28 F         137.7406  136.3775  165.8943 F       1  UNL1       -0.2042
     29 C         137.9919  138.6853  167.0609 C.ar    1  UNL1        0.0294
     30 C         138.6324  140.0396  167.1368 C.ar    1  UNL1       -0.0003
@<TRIPOS>BOND
     1    13    14    1
     2    14    15    1
     3    14    12    1
     4    12    11    1
     5    11     3    1
     6     3     4    1
     7     4     5    1
     8     5     6    1
     9     6     7    1
    10     7     8    1
    11     8     9    1
    12     9     1    1
    13     1    16    1
    14    16    17    1
    15    17    18   ar
    16    18    19   ar
    17    19    20   ar
    18    20    21    1
    19    20    22   ar
    20    22    23   ar
    21    16    24    1
    22    24    25   ar
    23    25    26   ar
    24    26    27   ar
    25    27    28    1
    26    27    29   ar
    27    29    30   ar
    28     9    10    1
    29     7     3    1
    30    23    17   ar
    31    30    24   ar
    32    10     4    1
    33     1     2    1
@<TRIPOS>MOLECULE
*****
 30 33 0 0 0
SMALL
GASTEIGER

@<TRIPOS>ATOM
      1 N         139.9794  140.7836  165.4780 N.3     1  UNL1       -0.2926
      2 H         140.0874  140.2141  166.3173 H       1  UNL1        0.1238
      3 N         141.2893  139.3178  163.3875 N.3     1  UNL1       -0.2740
      4 C         142.5465  138.5055  163.4855 C.3     1  UNL1        0.0589
      5 C         142.8337  137.9306  162.1301 C.3     1  UNL1        0.0174
      6 C         141.7540  138.3876  161.1945 C.3     1  UNL1        0.0174
      7 C         140.7995  139.2449  161.9716 C.3     1  UNL1        0.0589
      8 C         140.0235  140.0500  162.9860 C.3     1  UNL1        0.0317
      9 C         140.6322  140.0307  164.3569 C.3     1  UNL1        0.0571
     10 C         141.8936  139.2584  164.6066 C.3     1  UNL1        0.0317
     11 C         140.6365  140.0707  164.5086 C.3     1  UNL1        0.0896
     12 C         139.1747  139.8826  164.7873 C.3     1  UNL1        0.0897
     13 C         138.8725  137.3203  165.0933 C.3     1  UNL1        0.0897
     14 N         138.7122  138.7185  165.6126 N.3     1  UNL1       -0.2691
     15 C         138.0896  138.9525  166.9570 C.3     1  UNL1        0.0897
     16 C         140.4499  142.1643  165.8281 C.3     1  UNL1        0.0997
     17 C         141.0956  142.4221  167.1572 C.ar    1  UNL1       -0.0037
     18 C         140.3046  143.0500  168.2662 C.ar    1  UNL1       -0.0003
     19 C         140.9504  143.3078  169.5953 C.ar    1  UNL1        0.0294
     20 C         142.3872  142.9376  169.8154 C.ar    1  UNL1        0.1401
     21 F         143.0330  143.1954  171.1445 F       1  UNL1       -0.2042
     22 C         143.1783  142.3096  168.7064 C.ar    1  UNL1        0.0294
     23 C         142.5325  142.0519  167.3772 C.ar    1  UNL1       -0.0003
     24 C         140.2745  143.2871  164.8491 C.ar    1  UNL1       -0.0037
     25 C         141.4693  144.0549  164.3664 C.ar    1  UNL1       -0.0003
     26 C         141.2939  145.1777  163.3874 C.ar    1  UNL1        0.0294
     27 C         139.9236  145.5328  162.8911 C.ar    1  UNL1        0.1401
     28 F         139.7483  146.6557  161.9121 F       1  UNL1       -0.2042
     29 C         138.7288  144.7651  163.3737 C.ar    1  UNL1        0.0294
     30 C         138.9043  143.6422  164.3528 C.ar    1  UNL1       -0.0003
@<TRIPOS>BOND
     1    13    14    1
     2    14    15    1
     3    14    12    1
     4    12    11    1
     5    11     3    1
     6     3     4    1
     7     4     5    1
     8     5     6    1
     9     6     7    1
    10     7     8    1
    11     8     9    1
    12     9     1    1
    13     1    16    1
    14    16    17    1
    15    17    18   ar
    16    18    19   ar
    17    19    20   ar
    18    20    21    1
    19    20    22   ar
    20    22    23   ar
    21    16    24    1
    22    24    25   ar
    23    25    26   ar
    24    26    27   ar
    25    27    28    1
    26    27    29   ar
    27    29    30   ar
    28     9    10    1
    29     7     3    1
    30    23    17   ar
    31    30    24   ar
    32    10     4    1
    33     1     2    1
@<TRIPOS>MOLECULE
*****
 30 33 0 0 0
SMALL
GASTEIGER

@<TRIPOS>ATOM
      1 N         139.9783  140.7788  165.4693 N.3     1  UNL1       -0.2926
      2 H         140.0870  140.2089  166.3083 H       1  UNL1        0.1238
      3 N         141.2897  139.3156  163.3779 N.3     1  UNL1       -0.2740
      4 C         142.5477  138.5045  163.4753 C.3     1  UNL1        0.0589
      5 C         142.8356  137.9308  162.1196 C.3     1  UNL1        0.0174
      6 C         141.7555  138.3874  161.1842 C.3     1  UNL1        0.0174
      7 C         140.8001  139.2432  161.9619 C.3     1  UNL1        0.0589
      8 C         140.0233  140.0468  162.9768 C.3     1  UNL1        0.0317
      9 C         140.6319  140.0272  164.3477 C.3     1  UNL1        0.0571
     10 C         141.8941  139.2561  164.5969 C.3     1  UNL1        0.0317
     11 C         140.6361  140.0672  164.4995 C.3     1  UNL1        0.0896
     12 C         139.1739  139.8794  164.7762 C.3     1  UNL1        0.0897
     13 C         138.0801  138.9697  166.9502 C.3     1  UNL1        0.0897
     14 N         138.7112  138.7229  165.6119 N.3     1  UNL1       -0.2691
     15 C         138.8795  137.3197  165.1094 C.3     1  UNL1        0.0897
     16 C         140.4471  142.1598  165.8201 C.3     1  UNL1        0.0997
     17 C         140.2711  143.2828  164.8414 C.ar    1  UNL1       -0.0037
     18 C         138.9008  143.6365  164.3442 C.ar    1  UNL1       -0.0003
     19 C         138.7247  144.7594  163.3655 C.ar    1  UNL1        0.0294
     20 C         139.9190  145.5288  162.8840 C.ar    1  UNL1        0.1401
     21 F         139.7429  146.6518  161.9052 F       1  UNL1       -0.2042
     22 C         141.2893  145.1752  163.3812 C.ar    1  UNL1        0.0294
     23 C         141.4654  144.0522  164.3599 C.ar    1  UNL1       -0.0003
     24 C         141.0920  142.4178  167.1496 C.ar    1  UNL1       -0.0037
     25 C         140.3003  143.0464  168.2578 C.ar    1  UNL1       -0.0003
     26 C         140.9451  143.3044  169.5873 C.ar    1  UNL1        0.0294
     27 C         142.3817  142.9338  169.8086 C.ar    1  UNL1        0.1401
     28 F         143.0265  143.1918  171.1381 F       1  UNL1       -0.2042
     29 C         143.1734  142.3052  168.7004 C.ar    1  UNL1        0.0294
     30 C         142.5285  142.0472  167.3709 C.ar    1  UNL1       -0.0003
@<TRIPOS>BOND
     1    13    14    1
     2    14    15    1
     3    14    12    1
     4    12    11    1
     5    11     3    1
     6     3     4    1
     7     4     5    1
     8     5     6    1
     9     6     7    1
    10     7     8    1
    11     8     9    1
    12     9     1    1
    13     1    16    1
    14    16    17    1
    15    17    18   ar
    16    18    19   ar
    17    19    20   ar
    18    20    21    1
    19    20    22   ar
    20    22    23   ar
    21    16    24    1
    22    24    25   ar
    23    25    26   ar
    24    26    27   ar
    25    27    28    1
    26    27    29   ar
    27    29    30   ar
    28     9    10    1
    29     7     3    1
    30    23    17   ar
    31    30    24   ar
    32    10     4    1
    33     1     2    1
@<TRIPOS>MOLECULE
*****
 30 33 0 0 0
SMALL
GASTEIGER

@<TRIPOS>ATOM
      1 N         140.2259  142.7619  165.0484 N.3     1  UNL1       -0.2926
      2 H         139.4283  142.4613  164.4880 H       1  UNL1        0.1238
      3 N         142.4013  143.0082  163.1933 N.3     1  UNL1       -0.2740
      4 C         142.5795  142.2914  161.8878 C.3     1  UNL1        0.0589
      5 C         143.8706  142.7517  161.2786 C.3     1  UNL1        0.0174
      6 C         144.4904  143.7530  162.2076 C.3     1  UNL1        0.0174
      7 C         143.5824  143.9116  163.3910 C.3     1  UNL1        0.0589
      8 C         142.4969  143.8671  164.4394 C.3     1  UNL1        0.0317
      9 C         141.3820  142.9205  164.1060 C.3     1  UNL1        0.0571
     10 C         141.4233  142.1327  162.8302 C.3     1  UNL1        0.0317
     11 C         141.2452  142.8495  164.1357 C.3     1  UNL1        0.0896
     12 C         140.3653  144.0236  164.4477 C.3     1  UNL1        0.0897
     13 C         138.0238  144.1119  163.3253 C.3     1  UNL1        0.0897
     14 N         139.4489  144.5746  163.3957 N.3     1  UNL1       -0.2691
     15 C         139.9577  145.5882  162.4140 C.3     1  UNL1        0.0897
     16 C         140.3257  141.8114  166.2045 C.3     1  UNL1        0.0997
     17 C         139.6886  140.4561  166.1183 C.ar    1  UNL1       -0.0037
     18 C         138.6376  140.0569  167.1113 C.ar    1  UNL1       -0.0003
     19 C         138.0006  138.7016  167.0251 C.ar    1  UNL1        0.0294
     20 C         138.4145  137.7456  165.9460 C.ar    1  UNL1        0.1401
     21 F         137.7775  136.3903  165.8598 F       1  UNL1       -0.2042
     22 C         139.4656  138.1447  164.9530 C.ar    1  UNL1        0.0294
     23 C         140.1026  139.5000  165.0391 C.ar    1  UNL1       -0.0003
     24 C         141.0625  142.2161  167.4468 C.ar    1  UNL1       -0.0037
     25 C         140.3604  143.0057  168.5115 C.ar    1  UNL1       -0.0003
     26 C         141.0972  143.4105  169.7538 C.ar    1  UNL1        0.0294
     27 C         142.5362  143.0256  169.9313 C.ar    1  UNL1        0.1401
     28 F         143.2730  143.4304  171.1736 F       1  UNL1       -0.2042
     29 C         143.2382  142.2361  168.8665 C.ar    1  UNL1        0.0294
     30 C         142.5013  141.8313  167.6242 C.ar    1  UNL1       -0.0003
@<TRIPOS>BOND
     1    13    14    1
     2    14    15    1
     3    14    12    1
     4    12    11    1
     5    11     3    1
     6     3     4    1
     7     4     5    1
     8     5     6    1
     9     6     7    1
    10     7     8    1
    11     8     9    1
    12     9     1    1
    13     1    16    1
    14    16    17    1
    15    17    18   ar
    16    18    19   ar
    17    19    20   ar
    18    20    21    1
    19    20    22   ar
    20    22    23   ar
    21    16    24    1
    22    24    25   ar
    23    25    26   ar
    24    26    27   ar
    25    27    28    1
    26    27    29   ar
    27    29    30   ar
    28     9    10    1
    29     7     3    1
    30    23    17   ar
    31    30    24   ar
    32    10     4    1
    33     1     2    1
@<TRIPOS>MOLECULE
*****
 30 33 0 0 0
SMALL
GASTEIGER

@<TRIPOS>ATOM
      1 N         140.4061  140.7028  165.2741 N.3     1  UNL1       -0.2926
      2 H         140.4898  140.1177  166.1054 H       1  UNL1        0.1238
      3 N         141.9137  139.4827  163.1591 N.3     1  UNL1       -0.2740
      4 C         141.6707  139.5846  161.6824 C.3     1  UNL1        0.0589
      5 C         142.7216  138.7745  160.9828 C.3     1  UNL1        0.0174
      6 C         143.6140  138.1720  162.0271 C.3     1  UNL1        0.0174
      7 C         143.1147  138.6097  163.3721 C.3     1  UNL1        0.0589
      8 C         142.4015  139.1970  164.5661 C.3     1  UNL1        0.0317
      9 C         141.2211  140.0468  164.1992 C.3     1  UNL1        0.0571
     10 C         140.8558  140.2405  162.7573 C.3     1  UNL1        0.0317
     11 C         141.0987  140.1387  164.2340 C.3     1  UNL1        0.0896
     12 C         140.5900  139.3285  165.3893 C.3     1  UNL1        0.0897
     13 C         138.1526  139.0435  166.2426 C.3     1  UNL1        0.0897
     14 N         139.2533  138.6535  165.3011 N.3     1  UNL1       -0.2691
     15 C         139.0174  137.5885  164.2716 C.3     1  UNL1        0.0897
     16 C         140.7175  142.1071  165.6997 C.3     1  UNL1        0.0997
     17 C         141.2766  142.3699  167.0666 C.ar    1  UNL1       -0.0037
     18 C         140.3973  142.9402  168.1397 C.ar    1  UNL1       -0.0003
     19 C         140.9564  143.2031  169.5065 C.ar    1  UNL1        0.0294
     20 C         142.3948  142.8957  169.8003 C.ar    1  UNL1        0.1401
     21 F         142.9540  143.1585  171.1671 F       1  UNL1       -0.2042
     22 C         143.2742  142.3253  168.7272 C.ar    1  UNL1        0.0294
     23 C         142.7151  142.0625  167.3603 C.ar    1  UNL1       -0.0003
     24 C         140.4697  143.2484  164.7585 C.ar    1  UNL1       -0.0037
     25 C         139.0657  143.6194  164.3828 C.ar    1  UNL1       -0.0003
     26 C         138.8179  144.7608  163.4416 C.ar    1  UNL1        0.0294
     27 C         139.9742  145.5312  162.8761 C.ar    1  UNL1        0.1401
     28 F         139.7264  146.6725  161.9349 F       1  UNL1       -0.2042
     29 C         141.3781  145.1601  163.2518 C.ar    1  UNL1        0.0294
     30 C         141.6259  144.0187  164.1931 C.ar    1  UNL1       -0.0003
@<TRIPOS>BOND
     1    13    14    1
     2    14    15    1
     3    14    12    1
     4    12    11    1
     5    11     3    1
     6     3     4    1
     7     4     5    1
     8     5     6    1
     9     6     7    1
    10     7     8    1
    11     8     9    1
    12     9     1    1
    13     1    16    1
    14    16    17    1
    15    17    18   ar
    16    18    19   ar
    17    19    20   ar
    18    20    21    1
    19    20    22   ar
    20    22    23   ar
    21    16    24    1
    22    24    25   ar
    23    25    26   ar
    24    26    27   ar
    25    27    28    1
    26    27    29   ar
    27    29    30   ar
    28     9    10    1
    29     7     3    1
    30    23    17   ar
    31    30    24   ar
    32    10     4    1
    33     1     2    1
@<TRIPOS>MOLECULE
*****
 30 33 0 0 0
SMALL
GASTEIGER

@<TRIPOS>ATOM
      1 N         141.9027  139.2559  164.6277 N.3     1  UNL1       -0.2926
      2 H         142.7168  139.3544  164.0212 H       1  UNL1        0.1238
      3 N         139.6441  138.9819  162.8791 N.3     1  UNL1       -0.2740
      4 C         139.1413  139.9694  161.8681 C.3     1  UNL1        0.0589
      5 C         137.9363  139.3763  161.2002 C.3     1  UNL1        0.0174
      6 C         137.6943  138.0221  161.7983 C.3     1  UNL1        0.0174
      7 C         138.7498  137.7784  162.8359 C.3     1  UNL1        0.0589
      8 C         139.9105  137.8077  163.8008 C.3     1  UNL1        0.0317
      9 C         140.7143  139.0723  163.7311 C.3     1  UNL1        0.0571
     10 C         140.3297  140.1531  162.7647 C.3     1  UNL1        0.0317
     11 C         140.8325  139.1656  163.7757 C.3     1  UNL1        0.0896
     12 C         141.9986  138.2274  163.6770 C.3     1  UNL1        0.0897
     13 C         144.2510  139.1127  162.7319 C.3     1  UNL1        0.0897
     14 N         142.9702  138.3554  162.5414 N.3     1  UNL1       -0.2691
     15 C         142.6611  137.7263  161.2153 C.3     1  UNL1        0.0897
     16 C         141.9424  140.4017  165.5951 C.3     1  UNL1        0.0997
     17 C         142.4728  141.7348  165.1575 C.ar    1  UNL1       -0.0037
     18 C         143.9512  141.9884  165.1512 C.ar    1  UNL1       -0.0003
     19 C         144.4816  143.3214  164.7136 C.ar    1  UNL1        0.0294
     20 C         143.5337  144.4009  164.2822 C.ar    1  UNL1        0.1401
     21 F         144.0641  145.7340  163.8446 F       1  UNL1       -0.2042
     22 C         142.0552  144.1474  164.2885 C.ar    1  UNL1        0.0294
     23 C         141.5248  142.8143  164.7262 C.ar    1  UNL1       -0.0003
     24 C         141.4516  140.2143  167.0001 C.ar    1  UNL1       -0.0037
     25 C         140.0047  140.4392  167.3254 C.ar    1  UNL1       -0.0003
     26 C         139.5139  140.2518  168.7304 C.ar    1  UNL1        0.0294
     27 C         140.4701  139.8395  169.8101 C.ar    1  UNL1        0.1401
     28 F         139.9793  139.6521  171.2151 F       1  UNL1       -0.2042
     29 C         141.9170  139.6145  169.4848 C.ar    1  UNL1        0.0294
     30 C         142.4077  139.8020  168.0798 C.ar    1  UNL1       -0.0003
@<TRIPOS>BOND
     1    13    14    1
     2    14    15    1
     3    14    12    1
     4    12    11    1
     5    11     3    1
     6     3     4    1
     7     4     5    1
     8     5     6    1
     9     6     7    1
    10     7     8    1
    11     8     9    1
    12     9     1    1
    13     1    16    1
    14    16    17    1
    15    17    18   ar
    16    18    19   ar
    17    19    20   ar
    18    20    21    1
    19    20    22   ar
    20    22    23   ar
    21    16    24    1
    22    24    25   ar
    23    25    26   ar
    24    26    27   ar
    25    27    28    1
    26    27    29   ar
    27    29    30   ar
    28     9    10    1
    29     7     3    1
    30    23    17   ar
    31    30    24   ar
    32    10     4    1
    33     1     2    1
@<TRIPOS>MOLECULE
*****
 30 33 0 0 0
SMALL
GASTEIGER

@<TRIPOS>ATOM
      1 N         141.9208  139.2949  164.6030 N.3     1  UNL1       -0.2926
      2 H         142.7329  139.4070  163.9960 H       1  UNL1        0.1238
      3 N         139.6651  139.0056  162.8529 N.3     1  UNL1       -0.2740
      4 C         139.1800  139.9727  161.8139 C.3     1  UNL1        0.0589
      5 C         137.9694  139.3787  161.1570 C.3     1  UNL1        0.0174
      6 C         137.7062  138.0445  161.7900 C.3     1  UNL1        0.0174
      7 C         138.7542  137.8140  162.8381 C.3     1  UNL1        0.0589
      8 C         139.9116  137.8529  163.8067 C.3     1  UNL1        0.0317
      9 C         140.7333  139.1039  163.7066 C.3     1  UNL1        0.0571
     10 C         140.3675  140.1637  162.7102 C.3     1  UNL1        0.0317
     11 C         140.8526  139.1967  163.7492 C.3     1  UNL1        0.0896
     12 C         142.0091  138.2444  163.6752 C.3     1  UNL1        0.0897
     13 C         144.2888  139.1150  162.7834 C.3     1  UNL1        0.0897
     14 N         143.0091  138.3639  162.5635 N.3     1  UNL1       -0.2691
     15 C         142.7294  137.7323  161.2321 C.3     1  UNL1        0.0897
     16 C         141.9486  140.4343  165.5783 C.3     1  UNL1        0.0997
     17 C         141.4529  140.2341  166.9797 C.ar    1  UNL1       -0.0037
     18 C         142.4077  139.8247  168.0617 C.ar    1  UNL1       -0.0003
     19 C         141.9119  139.6246  169.4632 C.ar    1  UNL1        0.0294
     20 C         140.4614  139.8338  169.7827 C.ar    1  UNL1        0.1401
     21 F         139.9656  139.6336  171.1842 F       1  UNL1       -0.2042
     22 C         139.5065  140.2432  168.7007 C.ar    1  UNL1        0.0294
     23 C         140.0022  140.4434  167.2992 C.ar    1  UNL1       -0.0003
     24 C         142.4722  141.7737  165.1521 C.ar    1  UNL1       -0.0037
     25 C         143.9495  142.0339  165.1450 C.ar    1  UNL1       -0.0003
     26 C         144.4731  143.3734  164.7188 C.ar    1  UNL1        0.0294
     27 C         143.5194  144.4527  164.2997 C.ar    1  UNL1        0.1401
     28 F         144.0430  145.7922  163.8735 F       1  UNL1       -0.2042
     29 C         142.0422  144.1926  164.3068 C.ar    1  UNL1        0.0294
     30 C         141.5186  142.8530  164.7330 C.ar    1  UNL1       -0.0003
@<TRIPOS>BOND
     1    13    14    1
     2    14    15    1
     3    14    12    1
     4    12    11    1
     5    11     3    1
     6     3     4    1
     7     4     5    1
     8     5     6    1
     9     6     7    1
    10     7     8    1
    11     8     9    1
    12     9     1    1
    13     1    16    1
    14    16    17    1
    15    17    18   ar
    16    18    19   ar
    17    19    20   ar
    18    20    21    1
    19    20    22   ar
    20    22    23   ar
    21    16    24    1
    22    24    25   ar
    23    25    26   ar
    24    26    27   ar
    25    27    28    1
    26    27    29   ar
    27    29    30   ar
    28     9    10    1
    29     7     3    1
    30    23    17   ar
    31    30    24   ar
    32    10     4    1
    33     1     2    1
@<TRIPOS>MOLECULE
*****
 30 33 0 0 0
SMALL
GASTEIGER

@<TRIPOS>ATOM
      1 N         139.9151  142.1027  165.1642 N.3     1  UNL1       -0.2926
      2 H         139.1316  142.1749  165.8133 H       1  UNL1        0.1238
      3 N         139.1441  140.3795  163.0031 N.3     1  UNL1       -0.2740
      4 C         139.7578  140.2899  161.6373 C.3     1  UNL1        0.0589
      5 C         139.0118  139.2452  160.8614 C.3     1  UNL1        0.0174
      6 C         137.9369  138.6891  161.7477 C.3     1  UNL1        0.0174
      7 C         138.0187  139.3901  163.0713 C.3     1  UNL1        0.0589
      8 C         138.3314  140.2445  164.2761 C.3     1  UNL1        0.0317
      9 C         139.4799  141.1850  164.0604 C.3     1  UNL1        0.0571
     10 C         140.1931  141.2077  162.7411 C.3     1  UNL1        0.0317
     11 C         139.5793  141.2973  164.1068 C.3     1  UNL1        0.0896
     12 C         138.5742  142.1732  164.7941 C.3     1  UNL1        0.0897
     13 C         138.6862  144.7408  165.1745 C.3     1  UNL1        0.0897
     14 N         138.3372  143.5706  164.3033 N.3     1  UNL1       -0.2691
     15 C         137.7511  143.7980  162.9414 C.3     1  UNL1        0.0897
     16 C         141.1267  141.7690  165.9832 C.3     1  UNL1        0.0997
     17 C         140.9809  141.4451  167.4405 C.ar    1  UNL1       -0.0037
     18 C         139.8359  140.5973  167.9095 C.ar    1  UNL1       -0.0003
     19 C         139.6901  140.2734  169.3668 C.ar    1  UNL1        0.0294
     20 C         140.6894  140.7974  170.3552 C.ar    1  UNL1        0.1401
     21 F         140.5436  140.4735  171.8125 F       1  UNL1       -0.2042
     22 C         141.8345  141.6453  169.8862 C.ar    1  UNL1        0.0294
     23 C         141.9803  141.9692  168.4289 C.ar    1  UNL1       -0.0003
     24 C         142.4840  141.7592  165.3448 C.ar    1  UNL1       -0.0037
     25 C         143.1820  143.0529  165.0466 C.ar    1  UNL1       -0.0003
     26 C         144.5393  143.0431  164.4083 C.ar    1  UNL1        0.0294
     27 C         145.1987  141.7394  164.0680 C.ar    1  UNL1        0.1401
     28 F         146.5560  141.7295  163.4296 F       1  UNL1       -0.2042
     29 C         144.5007  140.4456  164.3662 C.ar    1  UNL1        0.0294
     30 C         143.1433  140.4555  165.0046 C.ar    1  UNL1       -0.0003
@<TRIPOS>BOND
     1    13    14    1
     2    14    15    1
     3    14    12    1
     4    12    11    1
     5    11     3    1
     6     3     4    1
     7     4     5    1
     8     5     6    1
     9     6     7    1
    10     7     8    1
    11     8     9    1
    12     9     1    1
    13     1    16    1
    14    16    17    1
    15    17    18   ar
    16    18    19   ar
    17    19    20   ar
    18    20    21    1
    19    20    22   ar
    20    22    23   ar
    21    16    24    1
    22    24    25   ar
    23    25    26   ar
    24    26    27   ar
    25    27    28    1
    26    27    29   ar
    27    29    30   ar
    28     9    10    1
    29     7     3    1
    30    23    17   ar
    31    30    24   ar
    32    10     4    1
    33     1     2    1
@<TRIPOS>MOLECULE
*****
 30 33 0 0 0
SMALL
GASTEIGER

@<TRIPOS>ATOM
      1 N         139.9311  142.0830  165.1234 N.3     1  UNL1       -0.2926
      2 H         139.1459  142.1612  165.7697 H       1  UNL1        0.1238
      3 N         139.1832  140.3003  163.0027 N.3     1  UNL1       -0.2740
      4 C         139.7918  140.1942  161.6359 C.3     1  UNL1        0.0589
      5 C         139.0624  139.1192  160.8859 C.3     1  UNL1        0.0174
      6 C         138.0031  138.5609  161.7892 C.3     1  UNL1        0.0174
      7 C         138.0777  139.2909  163.0975 C.3     1  UNL1        0.0589
      8 C         138.3796  140.1761  164.2826 C.3     1  UNL1        0.0317
      9 C         139.5084  141.1341  164.0413 C.3     1  UNL1        0.0571
     10 C         140.2145  141.1431  162.7179 C.3     1  UNL1        0.0317
     11 C         139.6059  141.2492  164.0848 C.3     1  UNL1        0.0896
     12 C         138.5904  142.1334  164.7458 C.3     1  UNL1        0.0897
     13 C         138.6471  144.7143  165.0389 C.3     1  UNL1        0.0897
     14 N         138.3282  143.5081  164.2061 N.3     1  UNL1       -0.2691
     15 C         137.7472  143.6767  162.8335 C.3     1  UNL1        0.0897
     16 C         141.1454  141.7832  165.9516 C.3     1  UNL1        0.0997
     17 C         142.5039  141.7768  165.3158 C.ar    1  UNL1       -0.0037
     18 C         143.1841  143.0726  164.9867 C.ar    1  UNL1       -0.0003
     19 C         144.5427  143.0662  164.3509 C.ar    1  UNL1        0.0294
     20 C         145.2211  141.7641  164.0441 C.ar    1  UNL1        0.1401
     21 F         146.5796  141.7577  163.4083 F       1  UNL1       -0.2042
     22 C         144.5409  140.4682  164.3732 C.ar    1  UNL1        0.0294
     23 C         143.1824  140.4746  165.0090 C.ar    1  UNL1       -0.0003
     24 C         141.0010  141.4899  167.4155 C.ar    1  UNL1       -0.0037
     25 C         139.9153  140.5716  167.8929 C.ar    1  UNL1       -0.0003
     26 C         139.7710  140.2783  169.3568 C.ar    1  UNL1        0.0294
     27 C         140.7124  140.9032  170.3434 C.ar    1  UNL1        0.1401
     28 F         140.5680  140.6099  171.8073 F       1  UNL1       -0.2042
     29 C         141.7981  141.8215  169.8660 C.ar    1  UNL1        0.0294
     30 C         141.9424  142.1148  168.4020 C.ar    1  UNL1       -0.0003
@<TRIPOS>BOND
     1    13    14    1
     2    14    15    1
     3    14    12    1
     4    12    11    1
     5    11     3    1
     6     3     4    1
     7     4     5    1
     8     5     6    1
     9     6     7    1
    10     7     8    1
    11     8     9    1
    12     9     1    1
    13     1    16    1
    14    16    17    1
    15    17    18   ar
    16    18    19   ar
    17    19    20   ar
    18    20    21    1
    19    20    22   ar
    20    22    23   ar
    21    16    24    1
    22    24    25   ar
    23    25    26   ar
    24    26    27   ar
    25    27    28    1
    26    27    29   ar
    27    29    30   ar
    28     9    10    1
    29     7     3    1
    30    23    17   ar
    31    30    24   ar
    32    10     4    1
    33     1     2    1
