@<TRIPOS>MOLECULE
*****
 35 40 0 0 0
SMALL
GASTEIGER

@<TRIPOS>ATOM
      1 N         139.9524  145.2481  160.1569 N.am    1  UNL1       -0.2497
      2 C         140.4759  144.1301  161.0090 C.2     1  UNL1        0.3248
      3 O         141.6710  143.3420  160.5608 O.2     1  UNL1       -0.2488
      4 N         139.8045  143.8002  162.3091 N.ar    1  UNL1       -0.2609
      5 C         138.6071  144.4966  162.8846 C.ar    1  UNL1        0.0842
      6 C         138.2751  143.8428  164.1931 C.ar    1  UNL1        0.0207
      7 C         139.2673  142.7423  164.4263 C.ar    1  UNL1        0.0208
      8 C         139.4322  141.7608  165.5486 C.ar    1  UNL1        0.0390
      9 C         140.5424  140.7529  165.5064 C.ar    1  UNL1        0.1473
     10 C         141.4876  140.7266  164.3419 C.ar    1  UNL1        0.0390
     11 C         141.3227  141.7081  163.2197 C.ar    1  UNL1        0.0208
     12 C         140.2125  142.7160  163.2619 C.ar    1  UNL1        0.0683
     13 H         139.1681  145.7653  160.4510 H       1  UNL1        0.1581
     14 C         140.9950  146.0505  156.5053 C.ar    1  UNL1        0.0537
     15 C         139.9474  145.7150  157.5250 C.ar    1  UNL1        0.0502
     16 C         140.6238  145.5780  158.8568 C.ar    1  UNL1        0.1561
     17 N         142.0896  145.8288  158.6601 N.ar    1  UNL1       -0.1577
     18 N         142.3190  146.1209  157.2068 N.ar    1  UNL1       -0.2786
     19 H         143.1862  146.3232  156.7871 H       1  UNL1        0.1886
     20 C         139.5875  147.2096  155.1063 C.3     1  UNL1        0.0059
     21 C         140.7599  146.2761  155.0411 C.3     1  UNL1        0.0349
     22 C         140.9320  146.1774  153.5542 C.3     1  UNL1        0.0059
     23 C         141.8506  145.4209  154.4674 C.3     1  UNL1        0.0059
     24 O         140.7073  139.7714  166.6286 O.3     1  UNL1       -0.4363
     25 C         140.3346  140.1625  168.0279 C.ar    1  UNL1        0.2282
     26 N         139.0138  139.7386  168.5985 N.ar    1  UNL1       -0.1893
     27 C         138.6410  140.1297  169.9978 C.ar    1  UNL1        0.2012
     28 N         139.5892  140.9446  170.8266 N.ar    1  UNL1       -0.2271
     29 C         140.9101  141.3685  170.2560 C.ar    1  UNL1        0.0772
     30 C         141.2828  140.9774  168.8566 C.ar    1  UNL1        0.0477
     31 C         142.6037  141.4013  168.2860 C.3     1  UNL1        0.0494
     32 C         143.5518  142.2162  169.1148 C.3     1  UNL1        0.0738
     33 N         143.1791  142.6073  170.5141 N.3     1  UNL1       -0.2922
     34 C         141.8583  142.1835  171.0847 C.3     1  UNL1        0.1150
     35 H         143.2025  143.6264  170.5512 H       1  UNL1        0.1236
@<TRIPOS>BOND
     1    20    21    1
     2    21    14    1
     3    14    15   ar
     4    15    16   ar
     5    16     1    1
     6     1     2   am
     7     2     3    2
     8     2     4   am
     9     4     5   ar
    10     5     6   ar
    11     6     7   ar
    12     7     8   ar
    13     8     9   ar
    14     9    24    1
    15    24    25    1
    16    25    26   ar
    17    26    27   ar
    18    27    28   ar
    19    28    29   ar
    20    29    30   ar
    21    30    31    1
    22    31    32    1
    23    32    33    1
    24    33    34    1
    25     9    10   ar
    26    10    11   ar
    27    11    12   ar
    28    16    17   ar
    29    17    18   ar
    30    21    22    1
    31    22    23    1
    32    23    21    1
    33    18    14   ar
    34    12     4   ar
    35    12     7   ar
    36    30    25   ar
    37    34    29    1
    38     1    13    1
    39    33    35    1
    40    18    19    1
@<TRIPOS>MOLECULE
*****
 35 40 0 0 0
SMALL
GASTEIGER

@<TRIPOS>ATOM
      1 N         138.5144  139.5428  163.9448 N.am    1  UNL1       -0.2497
      2 C         139.6663  139.0312  163.1314 C.2     1  UNL1        0.3248
      3 O         140.8606  138.4343  163.8152 O.2     1  UNL1       -0.2488
      4 N         139.6239  139.1166  161.6345 N.ar    1  UNL1       -0.2609
      5 C         138.5031  139.6845  160.8151 C.ar    1  UNL1        0.0842
      6 C         138.8814  139.5679  159.3683 C.ar    1  UNL1        0.0207
      7 C         140.2359  138.9279  159.2935 C.ar    1  UNL1        0.0208
      8 C         141.1108  138.5631  158.1309 C.ar    1  UNL1        0.0390
      9 C         142.4446  137.9194  158.3689 C.ar    1  UNL1        0.1473
     10 C         142.9035  137.6404  159.7696 C.ar    1  UNL1        0.0390
     11 C         142.0286  138.0052  160.9321 C.ar    1  UNL1        0.0208
     12 C         140.6948  138.6490  160.6941 C.ar    1  UNL1        0.0683
     13 H         137.7306  139.9345  163.4960 H       1  UNL1        0.1581
     14 C         139.2008  139.8030  167.7561 C.ar    1  UNL1        0.0537
     15 C         139.5183  140.1788  166.3391 C.ar    1  UNL1        0.0502
     16 C         138.5568  139.4575  165.4417 C.ar    1  UNL1        0.1561
     17 N         137.6451  138.6359  166.3042 N.ar    1  UNL1       -0.1577
     18 N         138.0431  138.8495  167.7346 N.ar    1  UNL1       -0.2786
     19 H         137.6190  138.4363  168.5211 H       1  UNL1        0.1886
     20 C         141.3004  140.4548  168.4259 C.3     1  UNL1        0.0059
     21 C         139.9157  140.2946  168.9798 C.3     1  UNL1        0.0349
     22 C         140.1495  140.7305  170.3960 C.3     1  UNL1        0.0059
     23 C         138.7791  140.3051  169.9587 C.3     1  UNL1        0.0059
     24 O         143.3194  137.5545  157.2064 O.3     1  UNL1       -0.4363
     25 C         142.7515  136.7795  156.0545 C.ar    1  UNL1        0.2282
     26 N         142.1915  137.5040  154.8665 N.ar    1  UNL1       -0.1893
     27 C         141.6236  136.7290  153.7146 C.ar    1  UNL1        0.2012
     28 N         141.6158  135.2295  153.7508 N.ar    1  UNL1       -0.2271
     29 C         142.1758  134.5049  154.9388 C.ar    1  UNL1        0.0772
     30 C         142.7437  135.2799  156.0907 C.ar    1  UNL1        0.0477
     31 C         143.3038  134.5554  157.2787 C.3     1  UNL1        0.0494
     32 C         143.2959  133.0559  157.3148 C.3     1  UNL1        0.0738
     33 N         142.7280  132.2809  156.1629 N.3     1  UNL1       -0.2922
     34 C         142.1680  133.0054  154.9749 C.3     1  UNL1        0.1150
     35 H         141.9747  131.7048  156.5385 H       1  UNL1        0.1236
@<TRIPOS>BOND
     1    20    21    1
     2    21    14    1
     3    14    15   ar
     4    15    16   ar
     5    16     1    1
     6     1     2   am
     7     2     3    2
     8     2     4   am
     9     4     5   ar
    10     5     6   ar
    11     6     7   ar
    12     7     8   ar
    13     8     9   ar
    14     9    24    1
    15    24    25    1
    16    25    26   ar
    17    26    27   ar
    18    27    28   ar
    19    28    29   ar
    20    29    30   ar
    21    30    31    1
    22    31    32    1
    23    32    33    1
    24    33    34    1
    25     9    10   ar
    26    10    11   ar
    27    11    12   ar
    28    16    17   ar
    29    17    18   ar
    30    21    22    1
    31    22    23    1
    32    23    21    1
    33    18    14   ar
    34    12     4   ar
    35    12     7   ar
    36    30    25   ar
    37    34    29    1
    38     1    13    1
    39    33    35    1
    40    18    19    1
@<TRIPOS>MOLECULE
*****
 35 40 0 0 0
SMALL
GASTEIGER

@<TRIPOS>ATOM
      1 N         142.7903  138.5509  157.8195 N.am    1  UNL1       -0.2497
      2 C         142.8968  138.3556  159.3029 C.2     1  UNL1        0.3248
      3 O         143.2454  137.0066  159.8586 O.2     1  UNL1       -0.2488
      4 N         142.6546  139.5092  160.2305 N.ar    1  UNL1       -0.2609
      5 C         142.2997  140.9085  159.8233 C.ar    1  UNL1        0.0842
      6 C         142.1507  141.7302  161.0694 C.ar    1  UNL1        0.0207
      7 C         142.4134  140.8386  162.2467 C.ar    1  UNL1        0.0208
      8 C         142.4093  141.0993  163.7239 C.ar    1  UNL1        0.0390
      9 C         142.7167  139.9874  164.6826 C.ar    1  UNL1        0.1473
     10 C         143.0281  138.6147  164.1641 C.ar    1  UNL1        0.0390
     11 C         143.0322  138.3540  162.6869 C.ar    1  UNL1        0.0208
     12 C         142.7249  139.4659  161.7282 C.ar    1  UNL1        0.0683
     13 H         142.5615  139.4362  157.4547 H       1  UNL1        0.1581
     14 C         142.7881  135.2838  155.7240 C.ar    1  UNL1        0.0537
     15 C         142.1767  136.1717  156.7669 C.ar    1  UNL1        0.0502
     16 C         143.0324  137.3974  156.8918 C.ar    1  UNL1        0.1561
     17 N         144.1727  137.2668  155.9259 N.ar    1  UNL1       -0.1577
     18 N         144.0217  135.9606  155.2043 N.ar    1  UNL1       -0.2786
     19 H         144.6261  135.6091  154.5112 H       1  UNL1        0.1886
     20 C         142.6838  133.1022  156.4393 C.3     1  UNL1        0.0059
     21 C         142.2588  133.9526  155.2790 C.3     1  UNL1        0.0349
     22 C         141.5818  132.9169  154.4310 C.3     1  UNL1        0.0059
     23 C         141.6499  134.3408  153.9642 C.3     1  UNL1        0.0059
     24 O         142.7125  140.2480  166.1597 O.3     1  UNL1       -0.4363
     25 C         141.4549  140.0497  166.9528 C.ar    1  UNL1        0.2282
     26 N         140.1723  139.7110  166.2528 N.ar    1  UNL1       -0.1893
     27 C         138.9147  139.5127  167.0459 C.ar    1  UNL1        0.2012
     28 N         138.9396  139.6531  168.5390 N.ar    1  UNL1       -0.2271
     29 C         140.2223  139.9919  169.2392 C.ar    1  UNL1        0.0772
     30 C         141.4799  140.1902  168.4461 C.ar    1  UNL1        0.0477
     31 C         142.7625  140.5290  169.1461 C.3     1  UNL1        0.0494
     32 C         142.7875  140.6694  170.6393 C.3     1  UNL1        0.0738
     33 N         141.5298  140.4711  171.4324 N.3     1  UNL1       -0.2922
     34 C         140.2472  140.1324  170.7323 C.3     1  UNL1        0.1150
     35 H         141.3655  141.3374  171.9453 H       1  UNL1        0.1236
@<TRIPOS>BOND
     1    20    21    1
     2    21    14    1
     3    14    15   ar
     4    15    16   ar
     5    16     1    1
     6     1     2   am
     7     2     3    2
     8     2     4   am
     9     4     5   ar
    10     5     6   ar
    11     6     7   ar
    12     7     8   ar
    13     8     9   ar
    14     9    24    1
    15    24    25    1
    16    25    26   ar
    17    26    27   ar
    18    27    28   ar
    19    28    29   ar
    20    29    30   ar
    21    30    31    1
    22    31    32    1
    23    32    33    1
    24    33    34    1
    25     9    10   ar
    26    10    11   ar
    27    11    12   ar
    28    16    17   ar
    29    17    18   ar
    30    21    22    1
    31    22    23    1
    32    23    21    1
    33    18    14   ar
    34    12     4   ar
    35    12     7   ar
    36    30    25   ar
    37    34    29    1
    38     1    13    1
    39    33    35    1
    40    18    19    1
@<TRIPOS>MOLECULE
*****
 35 40 0 0 0
SMALL
GASTEIGER

@<TRIPOS>ATOM
      1 N         143.2749  141.7550  159.7329 N.am    1  UNL1       -0.2497
      2 C         143.3912  140.9667  161.0037 C.2     1  UNL1        0.3248
      3 O         144.3578  139.8229  161.0909 O.2     1  UNL1       -0.2488
      4 N         142.5410  141.3221  162.1872 N.ar    1  UNL1       -0.2609
      5 C         141.5355  142.4335  162.2485 C.ar    1  UNL1        0.0842
      6 C         140.9201  142.4268  163.6165 C.ar    1  UNL1        0.0207
      7 C         141.5453  141.3114  164.4005 C.ar    1  UNL1        0.0208
      8 C         141.3318  140.8291  165.8048 C.ar    1  UNL1        0.0390
      9 C         142.1201  139.6641  166.3257 C.ar    1  UNL1        0.1473
     10 C         143.1219  138.9814  165.4424 C.ar    1  UNL1        0.0390
     11 C         143.3354  139.4636  164.0382 C.ar    1  UNL1        0.0208
     12 C         142.5471  140.6286  163.5173 C.ar    1  UNL1        0.0683
     13 H         142.6405  142.5056  159.6756 H       1  UNL1        0.1581
     14 C         145.6237  141.5738  156.6482 C.ar    1  UNL1        0.0537
     15 C         144.9328  142.3573  157.7245 C.ar    1  UNL1        0.0502
     16 C         144.1250  141.3996  158.5493 C.ar    1  UNL1        0.1561
     17 N         144.3168  140.0240  157.9825 N.ar    1  UNL1       -0.1577
     18 N         145.2430  140.1317  156.8076 N.ar    1  UNL1       -0.2786
     19 H         145.5475  139.3867  156.2406 H       1  UNL1        0.1886
     20 C         145.6185  142.0969  154.4103 C.3     1  UNL1        0.0059
     21 C         146.5354  142.1340  155.5969 C.3     1  UNL1        0.0349
     22 C         147.7655  142.7071  154.9578 C.3     1  UNL1        0.0059
     23 C         147.7689  142.3656  156.4184 C.3     1  UNL1        0.0059
     24 O         141.9066  139.1819  167.7299 O.3     1  UNL1       -0.4363
     25 C         141.1555  140.0340  168.7096 C.ar    1  UNL1        0.2282
     26 N         139.7051  139.7641  168.9806 N.ar    1  UNL1       -0.1893
     27 C         138.9539  140.6162  169.9602 C.ar    1  UNL1        0.2012
     28 N         139.6531  141.7382  170.6688 N.ar    1  UNL1       -0.2271
     29 C         141.1036  142.0081  170.3978 C.ar    1  UNL1        0.0772
     30 C         141.8548  141.1560  169.4182 C.ar    1  UNL1        0.0477
     31 C         143.3051  141.4259  169.1472 C.3     1  UNL1        0.0494
     32 C         144.0043  142.5479  169.8558 C.3     1  UNL1        0.0738
     33 N         143.2532  143.4000  170.8354 N.3     1  UNL1       -0.2922
     34 C         141.8028  143.1301  171.1064 C.3     1  UNL1        0.1150
     35 H         143.3160  144.3608  170.4987 H       1  UNL1        0.1236
@<TRIPOS>BOND
     1    20    21    1
     2    21    14    1
     3    14    15   ar
     4    15    16   ar
     5    16     1    1
     6     1     2   am
     7     2     3    2
     8     2     4   am
     9     4     5   ar
    10     5     6   ar
    11     6     7   ar
    12     7     8   ar
    13     8     9   ar
    14     9    24    1
    15    24    25    1
    16    25    26   ar
    17    26    27   ar
    18    27    28   ar
    19    28    29   ar
    20    29    30   ar
    21    30    31    1
    22    31    32    1
    23    32    33    1
    24    33    34    1
    25     9    10   ar
    26    10    11   ar
    27    11    12   ar
    28    16    17   ar
    29    17    18   ar
    30    21    22    1
    31    22    23    1
    32    23    21    1
    33    18    14   ar
    34    12     4   ar
    35    12     7   ar
    36    30    25   ar
    37    34    29    1
    38     1    13    1
    39    33    35    1
    40    18    19    1
@<TRIPOS>MOLECULE
*****
 35 40 0 0 0
SMALL
GASTEIGER

@<TRIPOS>ATOM
      1 N         143.6810  142.6839  158.5026 N.am    1  UNL1       -0.2497
      2 C         143.6349  142.3345  159.9606 C.2     1  UNL1        0.3248
      3 O         144.5089  141.2400  160.4975 O.2     1  UNL1       -0.2488
      4 N         142.7148  143.0795  160.8817 N.ar    1  UNL1       -0.2609
      5 C         141.7873  144.1918  160.4912 C.ar    1  UNL1        0.0842
      6 C         141.0599  144.6428  161.7232 C.ar    1  UNL1        0.0207
      7 C         141.5379  143.8091  162.8749 C.ar    1  UNL1        0.0208
      8 C         141.1739  143.8050  164.3301 C.ar    1  UNL1        0.0390
      9 C         141.8328  142.8347  165.2652 C.ar    1  UNL1        0.1473
     10 C         142.8556  141.8685  164.7451 C.ar    1  UNL1        0.0390
     11 C         143.2195  141.8727  163.2899 C.ar    1  UNL1        0.0208
     12 C         142.5607  142.8430  162.3548 C.ar    1  UNL1        0.0683
     13 H         143.1074  143.4023  158.1502 H       1  UNL1        0.1581
     14 C         146.2870  141.4436  155.9073 C.ar    1  UNL1        0.0537
     15 C         145.5788  142.5543  156.6247 C.ar    1  UNL1        0.0502
     16 C         144.6011  141.9390  157.5815 C.ar    1  UNL1        0.1561
     17 N         144.7051  140.4478  157.4554 N.ar    1  UNL1       -0.1577
     18 N         145.7470  140.1417  156.4208 N.ar    1  UNL1       -0.2786
     19 H         146.0273  139.2439  156.1297 H       1  UNL1        0.1886
     20 C         148.5378  141.8745  155.7345 C.3     1  UNL1        0.0059
     21 C         147.3488  141.6062  154.8603 C.3     1  UNL1        0.0349
     22 C         147.9976  141.6756  153.5096 C.3     1  UNL1        0.0059
     23 C         146.5285  141.3943  153.6224 C.3     1  UNL1        0.0059
     24 O         141.4689  142.8305  166.7203 O.3     1  UNL1       -0.4363
     25 C         140.6376  141.7155  167.2824 C.ar    1  UNL1        0.2282
     26 N         139.7522  140.9107  166.3778 N.ar    1  UNL1       -0.1893
     27 C         138.9209  139.7958  166.9399 C.ar    1  UNL1        0.2012
     28 N         138.9751  139.4856  168.4064 N.ar    1  UNL1       -0.2271
     29 C         139.8606  140.2904  169.3110 C.ar    1  UNL1        0.0772
     30 C         140.6918  141.4054  168.7490 C.ar    1  UNL1        0.0477
     31 C         141.5773  142.2102  169.6535 C.3     1  UNL1        0.0494
     32 C         141.6314  141.9001  171.1201 C.3     1  UNL1        0.0738
     33 N         140.8002  140.7851  171.6821 N.3     1  UNL1       -0.2922
     34 C         139.9147  139.9803  170.7776 C.3     1  UNL1        0.1150
     35 H         140.1971  141.1974  172.3939 H       1  UNL1        0.1236
@<TRIPOS>BOND
     1    20    21    1
     2    21    14    1
     3    14    15   ar
     4    15    16   ar
     5    16     1    1
     6     1     2   am
     7     2     3    2
     8     2     4   am
     9     4     5   ar
    10     5     6   ar
    11     6     7   ar
    12     7     8   ar
    13     8     9   ar
    14     9    24    1
    15    24    25    1
    16    25    26   ar
    17    26    27   ar
    18    27    28   ar
    19    28    29   ar
    20    29    30   ar
    21    30    31    1
    22    31    32    1
    23    32    33    1
    24    33    34    1
    25     9    10   ar
    26    10    11   ar
    27    11    12   ar
    28    16    17   ar
    29    17    18   ar
    30    21    22    1
    31    22    23    1
    32    23    21    1
    33    18    14   ar
    34    12     4   ar
    35    12     7   ar
    36    30    25   ar
    37    34    29    1
    38     1    13    1
    39    33    35    1
    40    18    19    1
@<TRIPOS>MOLECULE
*****
 35 40 0 0 0
SMALL
GASTEIGER

@<TRIPOS>ATOM
      1 N         142.8958  142.8638  170.7836 N.am    1  UNL1       -0.2497
      2 C         142.5266  142.2613  169.4605 C.2     1  UNL1        0.3248
      3 O         143.4473  142.4099  168.2856 O.2     1  UNL1       -0.2488
      4 N         141.2366  141.5103  169.3122 N.ar    1  UNL1       -0.2609
      5 C         140.2208  141.2809  170.3918 C.ar    1  UNL1        0.0842
      6 C         139.0924  140.4857  169.8050 C.ar    1  UNL1        0.0207
      7 C         139.4108  140.2236  168.3629 C.ar    1  UNL1        0.0208
      8 C         138.6652  139.4901  167.2877 C.ar    1  UNL1        0.0390
      9 C         139.2448  139.3898  165.9078 C.ar    1  UNL1        0.1473
     10 C         140.5701  140.0231  165.6032 C.ar    1  UNL1        0.0390
     11 C         141.3156  140.7566  166.6784 C.ar    1  UNL1        0.0208
     12 C         140.7360  140.8568  168.0583 C.ar    1  UNL1        0.0683
     13 H         142.2915  142.7663  171.5546 H       1  UNL1        0.1581
     14 C         145.8494  145.2227  171.6650 C.ar    1  UNL1        0.0537
     15 C         144.4240  144.7879  171.8358 C.ar    1  UNL1        0.0502
     16 C         144.1857  143.6148  170.9319 C.ar    1  UNL1        0.1561
     17 N         145.4640  143.3246  170.2025 N.ar    1  UNL1       -0.1577
     18 N         146.4921  144.3184  170.6555 N.ar    1  UNL1       -0.2786
     19 H         147.4250  144.3683  170.3449 H       1  UNL1        0.1886
     20 C         145.9601  147.5173  171.5993 C.3     1  UNL1        0.0059
     21 C         146.5151  146.3620  172.3785 C.3     1  UNL1        0.0349
     22 C         147.3737  147.0999  173.3626 C.3     1  UNL1        0.0059
     23 C         147.3014  145.6023  173.4054 C.3     1  UNL1        0.0059
     24 O         138.4993  138.6564  164.8326 O.3     1  UNL1       -0.4363
     25 C         138.7759  138.9571  163.3893 C.ar    1  UNL1        0.2282
     26 N         139.4155  137.9187  162.5161 N.ar    1  UNL1       -0.1893
     27 C         139.6921  138.2194  161.0728 C.ar    1  UNL1        0.2012
     28 N         139.3292  139.5586  160.5028 N.ar    1  UNL1       -0.2271
     29 C         138.6895  140.5970  161.3760 C.ar    1  UNL1        0.0772
     30 C         138.4129  140.2963  162.8193 C.ar    1  UNL1        0.0477
     31 C         137.7733  141.3347  163.6926 C.3     1  UNL1        0.0494
     32 C         137.4103  142.6738  163.1225 C.3     1  UNL1        0.0738
     33 N         137.6870  142.9745  161.6793 N.3     1  UNL1       -0.2922
     34 C         138.3266  141.9362  160.8060 C.3     1  UNL1        0.1150
     35 H         138.2973  143.7916  161.6605 H       1  UNL1        0.1236
@<TRIPOS>BOND
     1    20    21    1
     2    21    14    1
     3    14    15   ar
     4    15    16   ar
     5    16     1    1
     6     1     2   am
     7     2     3    2
     8     2     4   am
     9     4     5   ar
    10     5     6   ar
    11     6     7   ar
    12     7     8   ar
    13     8     9   ar
    14     9    24    1
    15    24    25    1
    16    25    26   ar
    17    26    27   ar
    18    27    28   ar
    19    28    29   ar
    20    29    30   ar
    21    30    31    1
    22    31    32    1
    23    32    33    1
    24    33    34    1
    25     9    10   ar
    26    10    11   ar
    27    11    12   ar
    28    16    17   ar
    29    17    18   ar
    30    21    22    1
    31    22    23    1
    32    23    21    1
    33    18    14   ar
    34    12     4   ar
    35    12     7   ar
    36    30    25   ar
    37    34    29    1
    38     1    13    1
    39    33    35    1
    40    18    19    1
@<TRIPOS>MOLECULE
*****
 35 40 0 0 0
SMALL
GASTEIGER

@<TRIPOS>ATOM
      1 N         142.7580  143.7368  159.7103 N.am    1  UNL1       -0.2497
      2 C         142.1247  143.1233  160.9238 C.2     1  UNL1        0.3248
      3 O         140.6528  143.2839  161.1638 O.2     1  UNL1       -0.2488
      4 N         142.9634  142.3493  161.8971 N.ar    1  UNL1       -0.2609
      5 C         144.4396  142.1059  161.7903 C.ar    1  UNL1        0.0842
      6 C         144.8617  141.2889  162.9754 C.ar    1  UNL1        0.0207
      7 C         143.6462  141.0274  163.8146 C.ar    1  UNL1        0.0208
      8 C         143.4562  140.2772  165.0996 C.ar    1  UNL1        0.0390
      9 C         142.0929  140.1823  165.7181 C.ar    1  UNL1        0.1473
     10 C         140.9197  140.8377  165.0516 C.ar    1  UNL1        0.0390
     11 C         141.1098  141.5879  163.7667 C.ar    1  UNL1        0.0208
     12 C         142.4730  141.6827  163.1482 C.ar    1  UNL1        0.0683
     13 H         143.7241  143.6314  159.5527 H       1  UNL1        0.1581
     14 C         140.2240  145.0865  157.0983 C.ar    1  UNL1        0.0537
     15 C         140.7713  143.9700  157.9372 C.ar    1  UNL1        0.0502
     16 C         141.9194  144.5109  158.7369 C.ar    1  UNL1        0.1561
     17 N         142.0816  145.9617  158.3920 N.ar    1  UNL1       -0.1577
     18 N         141.0338  146.3174  157.3794 N.ar    1  UNL1       -0.2786
     19 H         140.9009  147.2033  156.9709 H       1  UNL1        0.1886
     20 C         138.7139  143.5417  156.3142 C.3     1  UNL1        0.0059
     21 C         139.0695  144.9891  156.1455 C.3     1  UNL1        0.0349
     22 C         138.0385  145.3945  155.1341 C.3     1  UNL1        0.0059
     23 C         139.0242  146.4028  155.6460 C.3     1  UNL1        0.0059
     24 O         141.9029  139.4321  167.0030 O.3     1  UNL1       -0.4363
     25 C         141.0819  140.0306  168.1066 C.ar    1  UNL1        0.2282
     26 N         139.6480  139.6255  168.2790 N.ar    1  UNL1       -0.1893
     27 C         138.8270  140.2240  169.3825 C.ar    1  UNL1        0.2012
     28 N         139.4400  141.2276  170.3137 N.ar    1  UNL1       -0.2271
     29 C         140.8740  141.6328  170.1413 C.ar    1  UNL1        0.0772
     30 C         141.6949  141.0343  169.0377 C.ar    1  UNL1        0.0477
     31 C         143.1288  141.4393  168.8653 C.3     1  UNL1        0.0494
     32 C         143.7418  142.4429  169.7964 C.3     1  UNL1        0.0738
     33 N         142.9208  143.0414  170.9000 N.3     1  UNL1       -0.2922
     34 C         141.4869  142.6364  171.0724 C.3     1  UNL1        0.1150
     35 H         142.9263  144.0513  170.7566 H       1  UNL1        0.1236
@<TRIPOS>BOND
     1    20    21    1
     2    21    14    1
     3    14    15   ar
     4    15    16   ar
     5    16     1    1
     6     1     2   am
     7     2     3    2
     8     2     4   am
     9     4     5   ar
    10     5     6   ar
    11     6     7   ar
    12     7     8   ar
    13     8     9   ar
    14     9    24    1
    15    24    25    1
    16    25    26   ar
    17    26    27   ar
    18    27    28   ar
    19    28    29   ar
    20    29    30   ar
    21    30    31    1
    22    31    32    1
    23    32    33    1
    24    33    34    1
    25     9    10   ar
    26    10    11   ar
    27    11    12   ar
    28    16    17   ar
    29    17    18   ar
    30    21    22    1
    31    22    23    1
    32    23    21    1
    33    18    14   ar
    34    12     4   ar
    35    12     7   ar
    36    30    25   ar
    37    34    29    1
    38     1    13    1
    39    33    35    1
    40    18    19    1
@<TRIPOS>MOLECULE
*****
 35 40 0 0 0
SMALL
GASTEIGER

@<TRIPOS>ATOM
      1 N         143.3262  136.9953  157.9566 N.am    1  UNL1       -0.2497
      2 C         142.2903  137.7911  158.6939 C.2     1  UNL1        0.3248
      3 O         141.0384  138.2261  157.9913 O.2     1  UNL1       -0.2488
      4 N         142.5062  138.1517  160.1338 N.ar    1  UNL1       -0.2609
      5 C         143.7017  137.7887  160.9639 C.ar    1  UNL1        0.0842
      6 C         143.4989  138.3513  162.3396 C.ar    1  UNL1        0.0207
      7 C         142.1781  139.0619  162.3596 C.ar    1  UNL1        0.0208
      8 C         141.4547  139.8054  163.4432 C.ar    1  UNL1        0.0390
      9 C         140.1179  140.4255  163.1634 C.ar    1  UNL1        0.1473
     10 C         139.5043  140.3021  161.8002 C.ar    1  UNL1        0.0390
     11 C         140.2277  139.5586  160.7167 C.ar    1  UNL1        0.0208
     12 C         141.5646  138.9385  160.9964 C.ar    1  UNL1        0.0683
     13 H         144.1478  136.7098  158.4177 H       1  UNL1        0.1581
     14 C         142.5586  135.3924  154.5060 C.ar    1  UNL1        0.0537
     15 C         142.6283  135.3107  156.0020 C.ar    1  UNL1        0.0502
     16 C         143.1103  136.6347  156.5167 C.ar    1  UNL1        0.1561
     17 N         143.3385  137.5346  155.3385 N.ar    1  UNL1       -0.1577
     18 N         142.9975  136.7668  154.0958 N.ar    1  UNL1       -0.2786
     19 H         143.0522  137.1055  153.1730 H       1  UNL1        0.1886
     20 C         141.5514  135.1058  152.4602 C.3     1  UNL1        0.0059
     21 C         142.1259  134.2926  153.5821 C.3     1  UNL1        0.0349
     22 C         141.8928  132.9104  153.0480 C.3     1  UNL1        0.0059
     23 C         142.5502  133.0975  154.3833 C.3     1  UNL1        0.0059
     24 O         139.3945  141.1690  164.2469 O.3     1  UNL1       -0.4363
     25 C         139.0688  140.4814  165.5396 C.ar    1  UNL1        0.2282
     26 N         138.0629  139.3690  165.5648 N.ar    1  UNL1       -0.1893
     27 C         137.7372  138.6814  166.8575 C.ar    1  UNL1        0.2012
     28 N         138.4174  139.1062  168.1251 N.ar    1  UNL1       -0.2271
     29 C         139.4233  140.2187  168.1000 C.ar    1  UNL1        0.0772
     30 C         139.7491  140.9063  166.8073 C.ar    1  UNL1        0.0477
     31 C         140.7549  142.0187  166.7821 C.3     1  UNL1        0.0494
     32 C         141.4351  142.4435  168.0497 C.3     1  UNL1        0.0738
     33 N         141.1094  141.7559  169.3425 N.3     1  UNL1       -0.2922
     34 C         140.1035  140.6435  169.3676 C.3     1  UNL1        0.1150
     35 H         140.7692  142.4750  169.9809 H       1  UNL1        0.1236
@<TRIPOS>BOND
     1    20    21    1
     2    21    14    1
     3    14    15   ar
     4    15    16   ar
     5    16     1    1
     6     1     2   am
     7     2     3    2
     8     2     4   am
     9     4     5   ar
    10     5     6   ar
    11     6     7   ar
    12     7     8   ar
    13     8     9   ar
    14     9    24    1
    15    24    25    1
    16    25    26   ar
    17    26    27   ar
    18    27    28   ar
    19    28    29   ar
    20    29    30   ar
    21    30    31    1
    22    31    32    1
    23    32    33    1
    24    33    34    1
    25     9    10   ar
    26    10    11   ar
    27    11    12   ar
    28    16    17   ar
    29    17    18   ar
    30    21    22    1
    31    22    23    1
    32    23    21    1
    33    18    14   ar
    34    12     4   ar
    35    12     7   ar
    36    30    25   ar
    37    34    29    1
    38     1    13    1
    39    33    35    1
    40    18    19    1
@<TRIPOS>MOLECULE
*****
 35 40 0 0 0
SMALL
GASTEIGER

@<TRIPOS>ATOM
      1 N         138.8364  139.7762  164.9160 N.am    1  UNL1       -0.2497
      2 C         139.9704  139.3158  164.0489 C.2     1  UNL1        0.3248
      3 O         141.2950  138.9750  164.6649 O.2     1  UNL1       -0.2488
      4 N         139.7800  139.1963  162.5659 N.ar    1  UNL1       -0.2609
      5 C         138.5196  139.5003  161.8115 C.ar    1  UNL1        0.0842
      6 C         138.7771  139.2436  160.3562 C.ar    1  UNL1        0.0207
      7 C         140.1966  138.7811  160.2112 C.ar    1  UNL1        0.0208
      8 C         141.0049  138.3828  159.0120 C.ar    1  UNL1        0.0390
      9 C         142.4330  137.9552  159.1785 C.ar    1  UNL1        0.1473
     10 C         143.0528  137.9259  160.5442 C.ar    1  UNL1        0.0390
     11 C         142.2445  138.3242  161.7433 C.ar    1  UNL1        0.0208
     12 C         140.8164  138.7518  161.5768 C.ar    1  UNL1        0.0683
     13 H         137.9670  139.9999  164.5117 H       1  UNL1        0.1581
     14 C         139.7924  140.6522  168.5744 C.ar    1  UNL1        0.0537
     15 C         139.9034  140.8923  167.0980 C.ar    1  UNL1        0.0502
     16 C         139.0268  139.8957  166.3990 C.ar    1  UNL1        0.1561
     17 N         138.3740  139.0397  167.4437 N.ar    1  UNL1       -0.1577
     18 N         138.8472  139.5073  168.7881 N.ar    1  UNL1       -0.2786
     19 H         138.5837  139.1291  169.6580 H       1  UNL1        0.1886
     20 C         140.4795  142.7945  169.0438 C.3     1  UNL1        0.0059
     21 C         140.5021  141.4220  169.6486 C.3     1  UNL1        0.0349
     22 C         141.2196  141.7151  170.9329 C.3     1  UNL1        0.0059
     23 C         140.7712  140.3168  170.6265 C.3     1  UNL1        0.0059
     24 O         143.2413  137.5568  157.9794 O.3     1  UNL1       -0.4363
     25 C         142.8698  136.3317  157.1977 C.ar    1  UNL1        0.2282
     26 N         143.3493  134.9826  157.6449 N.ar    1  UNL1       -0.1893
     27 C         142.9777  133.7575  156.8633 C.ar    1  UNL1        0.2012
     28 N         142.1266  133.8815  155.6344 N.ar    1  UNL1       -0.2271
     29 C         141.6471  135.2306  155.1871 C.ar    1  UNL1        0.0772
     30 C         142.0186  136.4557  155.9687 C.ar    1  UNL1        0.0477
     31 C         141.5391  137.8047  155.5215 C.3     1  UNL1        0.0494
     32 C         140.6881  137.9287  154.2926 C.3     1  UNL1        0.0738
     33 N         140.3165  136.7035  153.5109 N.3     1  UNL1       -0.2922
     34 C         140.7960  135.3545  153.9581 C.3     1  UNL1        0.1150
     35 H         140.6673  136.8414  152.5631 H       1  UNL1        0.1236
@<TRIPOS>BOND
     1    20    21    1
     2    21    14    1
     3    14    15   ar
     4    15    16   ar
     5    16     1    1
     6     1     2   am
     7     2     3    2
     8     2     4   am
     9     4     5   ar
    10     5     6   ar
    11     6     7   ar
    12     7     8   ar
    13     8     9   ar
    14     9    24    1
    15    24    25    1
    16    25    26   ar
    17    26    27   ar
    18    27    28   ar
    19    28    29   ar
    20    29    30   ar
    21    30    31    1
    22    31    32    1
    23    32    33    1
    24    33    34    1
    25     9    10   ar
    26    10    11   ar
    27    11    12   ar
    28    16    17   ar
    29    17    18   ar
    30    21    22    1
    31    22    23    1
    32    23    21    1
    33    18    14   ar
    34    12     4   ar
    35    12     7   ar
    36    30    25   ar
    37    34    29    1
    38     1    13    1
    39    33    35    1
    40    18    19    1
