@<TRIPOS>MOLECULE
*****
 44 49 0 0 0
SMALL
GASTEIGER

@<TRIPOS>ATOM
      1 C         140.8808  140.3682  166.8226 C.3     1  UNL1        0.1078
      2 C         141.0559  141.8427  166.6104 C.3     1  UNL1        0.0300
      3 C         142.2869  142.3612  165.9279 C.3     1  UNL1        0.0194
      4 C         143.3428  141.4051  165.4576 C.3     1  UNL1        0.0700
      5 C         143.1677  139.9306  165.6698 C.3     1  UNL1        0.0194
      6 C         141.9366  139.4121  166.3523 C.3     1  UNL1        0.0300
      7 C         142.6855  141.0739  165.8265 C.3     1  UNL1        0.1562
      8 O         141.5724  140.6050  166.4436 O.3     1  UNL1       -0.3558
      9 N         144.5738  141.9236  164.7751 N.3     1  UNL1       -0.2926
     10 H         145.3732  141.5633  165.2962 H       1  UNL1        0.1236
     11 C         144.8202  141.6061  163.3300 C.3     1  UNL1        0.1152
     12 C         144.0172  142.2910  162.2641 C.ar    1  UNL1        0.0765
     13 C         144.2992  142.0127  160.8173 C.ar    1  UNL1        0.0193
     14 C         143.4962  142.6976  159.7515 C.ar    1  UNL1        0.0411
     15 C         142.4113  143.6609  160.1323 C.ar    1  UNL1        0.1708
     16 C         142.1293  143.9393  161.5790 C.ar    1  UNL1        0.1682
     17 N         142.9323  143.2543  162.6450 N.ar    1  UNL1       -0.2304
     18 N         141.0444  144.9025  161.9599 N.am    1  UNL1       -0.2639
     19 C         140.2414  145.5875  160.8940 C.2     1  UNL1        0.2718
     20 O         139.1565  146.5507  161.2749 O.2     1  UNL1       -0.2707
     21 C         140.5234  145.3091  159.4473 C.3     1  UNL1        0.2898
     22 O         141.6083  144.3459  159.0664 O.3     1  UNL1       -0.4628
     23 H         140.8594  145.0852  162.9094 H       1  UNL1        0.1565
     24 C         139.6498  139.8497  167.5051 C.3     1  UNL1        0.1043
     25 N         139.6688  139.5758  168.9797 N.3     1  UNL1       -0.1820
     26 H         140.0280  138.6285  169.0987 H       1  UNL1        0.1485
     27 S         140.4632  140.4582  169.8963 S.O2    1  UNL1        0.0426
     28 C         141.2577  141.3407  170.8128 C.3     1  UNL1        0.1957
     29 O         141.4934  139.3780  170.0435 O.2     1  UNL1       -0.1575
     30 O         139.4331  141.5385  169.7491 O.2     1  UNL1       -0.1575
     31 C         138.3997  139.6051  166.7129 C.3     1  UNL1        0.0500
     32 C         137.9314  143.0242  163.8250 C.ar    1  UNL1        0.2250
     33 C         138.0160  142.7756  162.3482 C.ar    1  UNL1        0.0593
     34 C         138.2566  141.3871  161.8340 C.ar    1  UNL1        0.0254
     35 C         138.4127  140.2474  162.7966 C.ar    1  UNL1        0.0990
     36 N         138.6533  138.8590  162.2824 N.ar    1  UNL1       -0.2400
     37 C         138.8094  137.7193  163.2450 C.ar    1  UNL1        0.1281
     38 C         138.7249  137.9679  164.7219 C.ar    1  UNL1        0.1567
     39 F         138.8810  136.8282  165.6845 F       1  UNL1       -0.2028
     40 C         138.4842  139.3564  165.2361 C.ar    1  UNL1        0.0275
     41 C         138.3282  140.4961  164.2734 C.ar    1  UNL1        0.1002
     42 N         138.0875  141.8845  164.7876 N.ar    1  UNL1       -0.2104
     43 C         138.5559  144.9684  165.4313 C.3     1  UNL1        0.2542
     44 O         137.6908  144.4127  164.3392 O.3     1  UNL1       -0.4561
@<TRIPOS>BOND
     1    43    44    1
     2    44    32    1
     3    32    33   ar
     4    33    34   ar
     5    34    35   ar
     6    35    36   ar
     7    36    37   ar
     8    37    38   ar
     9    38    39    1
    10    38    40   ar
    11    40    31    1
    12    31    24    1
    13    24    25    1
    14    25    27    1
    15    27    28    1
    16    27    29    2
    17    27    30    2
    18    24     1    1
    19     1     2    1
    20     2     3    1
    21     3     4    1
    22     4     9    1
    23     9    11    1
    24    11    12    1
    25    12    13   ar
    26    13    14   ar
    27    14    15   ar
    28    15    16   ar
    29    16    17   ar
    30    16    18    1
    31    18    19   am
    32    19    20    2
    33    19    21    1
    34    21    22    1
    35     4     5    1
    36     5     6    1
    37     4     7    1
    38     7     8    1
    39    40    41   ar
    40    41    42   ar
    41    42    32   ar
    42    41    35   ar
    43     6     1    1
    44     8     1    1
    45    17    12   ar
    46    22    15    1
    47    25    26    1
    48     9    10    1
    49    18    23    1
@<TRIPOS>MOLECULE
*****
 44 49 0 0 0
SMALL
GASTEIGER

@<TRIPOS>ATOM
      1 C         139.9863  142.1982  166.4252 C.3     1  UNL1        0.1078
      2 C         139.5992  143.2490  165.4272 C.3     1  UNL1        0.0300
      3 C         138.5939  142.9349  164.3592 C.3     1  UNL1        0.0194
      4 C         137.9756  141.5700  164.2892 C.3     1  UNL1        0.0700
      5 C         138.3627  140.5192  165.2872 C.3     1  UNL1        0.0194
      6 C         139.3681  140.8334  166.3553 C.3     1  UNL1        0.0300
      7 C         138.5219  141.6952  164.8924 C.3     1  UNL1        0.1562
      8 O         139.4310  141.9792  165.8581 O.3     1  UNL1       -0.3558
      9 N         136.9703  141.2560  163.2212 N.3     1  UNL1       -0.2926
     10 H         136.3543  142.0658  163.1494 H       1  UNL1        0.1236
     11 C         137.4296  140.9364  161.8295 C.3     1  UNL1        0.1152
     12 C         138.6435  140.0811  161.6181 C.ar    1  UNL1        0.0765
     13 C         138.7327  138.7319  162.2676 C.ar    1  UNL1        0.0193
     14 C         139.9467  137.8766  162.0563 C.ar    1  UNL1        0.0411
     15 C         141.0714  138.3704  161.1954 C.ar    1  UNL1        0.1708
     16 C         140.9823  139.7195  160.5459 C.ar    1  UNL1        0.1682
     17 N         139.7683  140.5749  160.7573 N.ar    1  UNL1       -0.2304
     18 N         142.1070  140.2133  159.6851 N.am    1  UNL1       -0.2639
     19 C         143.3210  139.3580  159.4737 C.2     1  UNL1        0.2718
     20 O         144.4457  139.8518  158.6129 O.2     1  UNL1       -0.2707
     21 C         143.4102  138.0088  160.1232 C.3     1  UNL1        0.2898
     22 O         142.2854  137.5150  160.9841 O.3     1  UNL1       -0.4628
     23 H         142.0485  141.0988  159.2588 H       1  UNL1        0.1565
     24 C         140.9916  142.5123  167.4932 C.3     1  UNL1        0.1043
     25 N         140.5402  143.0908  168.8014 N.3     1  UNL1       -0.1820
     26 H         139.5219  143.1392  168.7663 H       1  UNL1        0.1485
     27 S         140.8970  142.4061  170.0874 S.O2    1  UNL1        0.0426
     28 C         141.2539  141.7213  171.3733 C.3     1  UNL1        0.1957
     29 O         141.8763  143.4991  170.3976 O.2     1  UNL1       -0.1575
     30 O         139.9177  141.3131  169.7771 O.2     1  UNL1       -0.1575
     31 C         142.4485  142.2477  167.2530 C.3     1  UNL1        0.0500
     32 C         144.2544  142.6134  163.1476 C.ar    1  UNL1        0.2250
     33 C         144.6805  141.3828  162.4033 C.ar    1  UNL1        0.0593
     34 C         144.5046  140.0302  163.0275 C.ar    1  UNL1        0.0254
     35 C         143.9026  139.9083  164.3960 C.ar    1  UNL1        0.0990
     36 N         143.7267  138.5558  165.0202 N.ar    1  UNL1       -0.2400
     37 C         143.1248  138.4338  166.3887 C.ar    1  UNL1        0.1281
     38 C         142.6987  139.6645  167.1330 C.ar    1  UNL1        0.1567
     39 F         142.0967  139.5426  168.5014 F       1  UNL1       -0.2028
     40 C         142.8746  141.0171  166.5088 C.ar    1  UNL1        0.0275
     41 C         143.4766  141.1390  165.1402 C.ar    1  UNL1        0.1002
     42 N         143.6525  142.4915  164.5160 N.ar    1  UNL1       -0.2104
     43 C         143.7855  145.1688  163.1457 C.3     1  UNL1        0.2542
     44 O         144.4303  143.9660  162.5233 O.3     1  UNL1       -0.4561
@<TRIPOS>BOND
     1    43    44    1
     2    44    32    1
     3    32    33   ar
     4    33    34   ar
     5    34    35   ar
     6    35    36   ar
     7    36    37   ar
     8    37    38   ar
     9    38    39    1
    10    38    40   ar
    11    40    31    1
    12    31    24    1
    13    24    25    1
    14    25    27    1
    15    27    28    1
    16    27    29    2
    17    27    30    2
    18    24     1    1
    19     1     2    1
    20     2     3    1
    21     3     4    1
    22     4     9    1
    23     9    11    1
    24    11    12    1
    25    12    13   ar
    26    13    14   ar
    27    14    15   ar
    28    15    16   ar
    29    16    17   ar
    30    16    18    1
    31    18    19   am
    32    19    20    2
    33    19    21    1
    34    21    22    1
    35     4     5    1
    36     5     6    1
    37     4     7    1
    38     7     8    1
    39    40    41   ar
    40    41    42   ar
    41    42    32   ar
    42    41    35   ar
    43     6     1    1
    44     8     1    1
    45    17    12   ar
    46    22    15    1
    47    25    26    1
    48     9    10    1
    49    18    23    1
@<TRIPOS>MOLECULE
*****
 44 49 0 0 0
SMALL
GASTEIGER

@<TRIPOS>ATOM
      1 C         142.8660  141.3326  166.2071 C.3     1  UNL1        0.1078
      2 C         143.1164  139.8580  166.3208 C.3     1  UNL1        0.0300
      3 C         143.7270  139.1103  165.1728 C.3     1  UNL1        0.0194
      4 C         144.0872  139.8370  163.9110 C.3     1  UNL1        0.0700
      5 C         143.8368  141.3116  163.7973 C.3     1  UNL1        0.0194
      6 C         143.2262  142.0594  164.9454 C.3     1  UNL1        0.0300
      7 C         143.7548  140.2895  164.5133 C.3     1  UNL1        0.1562
      8 O         143.2027  140.9657  165.5514 O.3     1  UNL1       -0.3558
      9 N         144.6978  139.0893  162.7630 N.3     1  UNL1       -0.2926
     10 H         145.5081  138.5924  163.1329 H       1  UNL1        0.1236
     11 C         143.8828  138.0841  162.0043 C.3     1  UNL1        0.1152
     12 C         142.4006  138.2694  161.8682 C.ar    1  UNL1        0.0765
     13 C         141.4675  137.5697  162.8116 C.ar    1  UNL1        0.0193
     14 C         139.9853  137.7549  162.6756 C.ar    1  UNL1        0.0411
     15 C         139.4360  138.6399  161.5961 C.ar    1  UNL1        0.1708
     16 C         140.3689  139.3395  160.6528 C.ar    1  UNL1        0.1682
     17 N         141.8513  139.1543  160.7888 N.ar    1  UNL1       -0.2304
     18 N         139.8196  140.2245  159.5733 N.am    1  UNL1       -0.2639
     19 C         138.3374  140.4097  159.4372 C.2     1  UNL1        0.2718
     20 O         137.7881  141.2946  158.3578 O.2     1  UNL1       -0.2707
     21 C         137.4043  139.7100  160.3806 C.3     1  UNL1        0.2898
     22 O         137.9536  138.8251  161.4601 O.3     1  UNL1       -0.4628
     23 H         140.4320  140.6837  158.9542 H       1  UNL1        0.1565
     24 C         142.2555  142.0804  167.3551 C.3     1  UNL1        0.1043
     25 N         143.0983  142.4588  168.5369 N.3     1  UNL1       -0.1820
     26 H         143.2374  143.4681  168.4882 H       1  UNL1        0.1485
     27 S         142.6221  142.1538  169.9261 S.O2    1  UNL1        0.0426
     28 C         142.1459  141.8488  171.3154 C.3     1  UNL1        0.1957
     29 O         142.8061  140.6878  169.6674 O.2     1  UNL1       -0.1575
     30 O         142.4381  143.6198  170.1849 O.2     1  UNL1       -0.1575
     31 C         140.8020  142.4498  167.3215 C.3     1  UNL1        0.0500
     32 C         138.9346  144.0990  163.5741 C.ar    1  UNL1        0.2250
     33 C         137.9667  143.2647  162.7886 C.ar    1  UNL1        0.0593
     34 C         137.6212  141.8806  163.2523 C.ar    1  UNL1        0.0254
     35 C         138.2437  141.3309  164.5014 C.ar    1  UNL1        0.0990
     36 N         137.8982  139.9468  164.9650 N.ar    1  UNL1       -0.2400
     37 C         138.5207  139.3970  166.2141 C.ar    1  UNL1        0.1281
     38 C         139.4886  140.2314  166.9996 C.ar    1  UNL1        0.1567
     39 F         140.1111  139.6816  168.2487 F       1  UNL1       -0.2028
     40 C         139.8341  141.6155  166.5360 C.ar    1  UNL1        0.0275
     41 C         139.2116  142.1652  165.2868 C.ar    1  UNL1        0.1002
     42 N         139.5570  143.5493  164.8232 N.ar    1  UNL1       -0.2104
     43 C         139.8775  145.6913  161.7504 C.3     1  UNL1        0.2542
     44 O         139.2800  145.4831  163.1105 O.3     1  UNL1       -0.4561
@<TRIPOS>BOND
     1    43    44    1
     2    44    32    1
     3    32    33   ar
     4    33    34   ar
     5    34    35   ar
     6    35    36   ar
     7    36    37   ar
     8    37    38   ar
     9    38    39    1
    10    38    40   ar
    11    40    31    1
    12    31    24    1
    13    24    25    1
    14    25    27    1
    15    27    28    1
    16    27    29    2
    17    27    30    2
    18    24     1    1
    19     1     2    1
    20     2     3    1
    21     3     4    1
    22     4     9    1
    23     9    11    1
    24    11    12    1
    25    12    13   ar
    26    13    14   ar
    27    14    15   ar
    28    15    16   ar
    29    16    17   ar
    30    16    18    1
    31    18    19   am
    32    19    20    2
    33    19    21    1
    34    21    22    1
    35     4     5    1
    36     5     6    1
    37     4     7    1
    38     7     8    1
    39    40    41   ar
    40    41    42   ar
    41    42    32   ar
    42    41    35   ar
    43     6     1    1
    44     8     1    1
    45    17    12   ar
    46    22    15    1
    47    25    26    1
    48     9    10    1
    49    18    23    1
@<TRIPOS>MOLECULE
*****
 44 49 0 0 0
SMALL
GASTEIGER

@<TRIPOS>ATOM
      1 C         139.9520  142.2195  166.3688 C.3     1  UNL1        0.1078
      2 C         139.3590  140.8465  166.2529 C.3     1  UNL1        0.0300
      3 C         138.3891  140.5391  165.1508 C.3     1  UNL1        0.0194
      4 C         138.0121  141.6046  164.1645 C.3     1  UNL1        0.0700
      5 C         138.6051  142.9775  164.2804 C.3     1  UNL1        0.0194
      6 C         139.5751  143.2849  165.3826 C.3     1  UNL1        0.0300
      7 C         138.5477  141.8204  164.7514 C.3     1  UNL1        0.1562
      8 O         139.4247  142.0984  165.7480 O.3     1  UNL1       -0.3558
      9 N         137.0422  141.2971  163.0624 N.3     1  UNL1       -0.2926
     10 H         136.5450  142.1638  162.8574 H       1  UNL1        0.1236
     11 C         137.5404  140.7634  161.7520 C.3     1  UNL1        0.1152
     12 C         138.7378  141.3844  161.0958 C.ar    1  UNL1        0.0765
     13 C         140.0924  140.7628  161.2649 C.ar    1  UNL1        0.0193
     14 C         141.2898  141.3838  160.6087 C.ar    1  UNL1        0.0411
     15 C         141.1326  142.6264  159.7834 C.ar    1  UNL1        0.1708
     16 C         139.7780  143.2481  159.6143 C.ar    1  UNL1        0.1682
     17 N         138.5806  142.6271  160.2705 N.ar    1  UNL1       -0.2304
     18 N         139.6209  144.4907  158.7890 N.am    1  UNL1       -0.2639
     19 C         140.8182  145.1117  158.1328 C.2     1  UNL1        0.2718
     20 O         140.6610  146.3543  157.3075 O.2     1  UNL1       -0.2707
     21 C         142.1729  144.4900  158.3019 C.3     1  UNL1        0.2898
     22 O         142.3301  143.2474  159.1272 O.3     1  UNL1       -0.4628
     23 H         138.7318  144.8987  158.6780 H       1  UNL1        0.1565
     24 C         140.9219  142.5269  167.4709 C.3     1  UNL1        0.1043
     25 N         140.4270  143.0902  168.7701 N.3     1  UNL1       -0.1820
     26 H         139.4085  143.1034  168.7163 H       1  UNL1        0.1485
     27 S         140.7837  142.4186  170.0630 S.O2    1  UNL1        0.0426
     28 C         141.1403  141.7470  171.3559 C.3     1  UNL1        0.1957
     29 O         139.8426  141.2962  169.7396 O.2     1  UNL1       -0.1575
     30 O         141.7247  143.5410  170.3864 O.2     1  UNL1       -0.1575
     31 C         142.3868  142.2712  167.2739 C.3     1  UNL1        0.0500
     32 C         144.2156  142.6190  163.1770 C.ar    1  UNL1        0.2250
     33 C         144.6711  141.3874  162.4520 C.ar    1  UNL1        0.0593
     34 C         144.5169  140.0399  163.0926 C.ar    1  UNL1        0.0254
     35 C         143.9073  139.9239  164.4582 C.ar    1  UNL1        0.0990
     36 N         143.7532  138.5764  165.0987 N.ar    1  UNL1       -0.2400
     37 C         143.1436  138.4604  166.4643 C.ar    1  UNL1        0.1281
     38 C         142.6881  139.6921  167.1894 C.ar    1  UNL1        0.1567
     39 F         142.0785  139.5761  168.5550 F       1  UNL1       -0.2028
     40 C         142.8422  141.0396  166.5488 C.ar    1  UNL1        0.0275
     41 C         143.4519  141.1555  165.1832 C.ar    1  UNL1        0.1002
     42 N         143.6060  142.5031  164.5426 N.ar    1  UNL1       -0.2104
     43 C         143.7349  145.1722  163.1636 C.3     1  UNL1        0.2542
     44 O         144.3698  143.9666  162.5364 O.3     1  UNL1       -0.4561
@<TRIPOS>BOND
     1    43    44    1
     2    44    32    1
     3    32    33   ar
     4    33    34   ar
     5    34    35   ar
     6    35    36   ar
     7    36    37   ar
     8    37    38   ar
     9    38    39    1
    10    38    40   ar
    11    40    31    1
    12    31    24    1
    13    24    25    1
    14    25    27    1
    15    27    28    1
    16    27    29    2
    17    27    30    2
    18    24     1    1
    19     1     2    1
    20     2     3    1
    21     3     4    1
    22     4     9    1
    23     9    11    1
    24    11    12    1
    25    12    13   ar
    26    13    14   ar
    27    14    15   ar
    28    15    16   ar
    29    16    17   ar
    30    16    18    1
    31    18    19   am
    32    19    20    2
    33    19    21    1
    34    21    22    1
    35     4     5    1
    36     5     6    1
    37     4     7    1
    38     7     8    1
    39    40    41   ar
    40    41    42   ar
    41    42    32   ar
    42    41    35   ar
    43     6     1    1
    44     8     1    1
    45    17    12   ar
    46    22    15    1
    47    25    26    1
    48     9    10    1
    49    18    23    1
@<TRIPOS>MOLECULE
*****
 44 49 0 0 0
SMALL
GASTEIGER

@<TRIPOS>ATOM
      1 C         141.1322  140.2089  166.6785 C.3     1  UNL1        0.1078
      2 C         142.0593  139.1388  166.1830 C.3     1  UNL1        0.0300
      3 C         143.3011  139.5124  165.4292 C.3     1  UNL1        0.0194
      4 C         143.6159  140.9561  165.1708 C.3     1  UNL1        0.0700
      5 C         142.6889  142.0262  165.6663 C.3     1  UNL1        0.0194
      6 C         141.4470  141.6525  166.4202 C.3     1  UNL1        0.0300
      7 C         142.9237  140.8002  165.5884 C.3     1  UNL1        0.1562
      8 O         141.8007  140.4624  166.2701 O.3     1  UNL1       -0.3558
      9 N         144.8577  141.3297  164.4170 N.3     1  UNL1       -0.2926
     10 H         145.4027  140.4747  164.3053 H       1  UNL1        0.1236
     11 C         144.7505  141.9556  163.0581 C.3     1  UNL1        0.1152
     12 C         143.7685  141.4176  162.0600 C.ar    1  UNL1        0.0765
     13 C         142.4440  142.0957  161.8704 C.ar    1  UNL1        0.0193
     14 C         141.4620  141.5577  160.8723 C.ar    1  UNL1        0.0411
     15 C         141.8045  140.3416  160.0637 C.ar    1  UNL1        0.1708
     16 C         143.1290  139.6635  160.2532 C.ar    1  UNL1        0.1682
     17 N         144.1111  140.2015  161.2513 N.ar    1  UNL1       -0.2304
     18 N         143.4715  138.4475  159.4445 N.am    1  UNL1       -0.2639
     19 C         142.4896  137.9095  158.4464 C.2     1  UNL1        0.2718
     20 O         142.8321  136.6934  157.6378 O.2     1  UNL1       -0.2707
     21 C         141.1650  138.5876  158.2569 C.3     1  UNL1        0.2898
     22 O         140.8225  139.8036  159.0655 O.3     1  UNL1       -0.4628
     23 H         144.3409  138.0025  159.5689 H       1  UNL1        0.1565
     24 C         139.8904  139.8353  167.4323 C.3     1  UNL1        0.1043
     25 N         139.9533  139.6021  168.9127 N.3     1  UNL1       -0.1820
     26 H         140.2879  138.6478  169.0465 H       1  UNL1        0.1485
     27 S         140.8056  140.4847  169.7755 S.O2    1  UNL1        0.0426
     28 C         141.6578  141.3674  170.6383 C.3     1  UNL1        0.1957
     29 O         141.7758  139.3575  169.9703 O.2     1  UNL1       -0.1575
     30 O         139.8353  141.6120  169.5807 O.2     1  UNL1       -0.1575
     31 C         138.5856  139.6950  166.7057 C.3     1  UNL1        0.0500
     32 C         137.9219  143.0706  163.8049 C.ar    1  UNL1        0.2250
     33 C         137.9103  142.8002  162.3295 C.ar    1  UNL1        0.0593
     34 C         138.1200  141.4047  161.8211 C.ar    1  UNL1        0.0254
     35 C         138.3413  140.2795  162.7880 C.ar    1  UNL1        0.0990
     36 N         138.5509  138.8840  162.2795 N.ar    1  UNL1       -0.2400
     37 C         138.7722  137.7588  163.2464 C.ar    1  UNL1        0.1281
     38 C         138.7837  138.0291  164.7219 C.ar    1  UNL1        0.1567
     39 F         139.0050  136.9039  165.6888 F       1  UNL1       -0.2028
     40 C         138.5741  139.4246  165.2303 C.ar    1  UNL1        0.0275
     41 C         138.3528  140.5498  164.2633 C.ar    1  UNL1        0.1002
     42 N         138.1431  141.9454  164.7718 N.ar    1  UNL1       -0.2104
     43 C         138.5029  144.9634  165.4870 C.3     1  UNL1        0.2542
     44 O         137.7122  144.4661  164.3133 O.3     1  UNL1       -0.4561
@<TRIPOS>BOND
     1    43    44    1
     2    44    32    1
     3    32    33   ar
     4    33    34   ar
     5    34    35   ar
     6    35    36   ar
     7    36    37   ar
     8    37    38   ar
     9    38    39    1
    10    38    40   ar
    11    40    31    1
    12    31    24    1
    13    24    25    1
    14    25    27    1
    15    27    28    1
    16    27    29    2
    17    27    30    2
    18    24     1    1
    19     1     2    1
    20     2     3    1
    21     3     4    1
    22     4     9    1
    23     9    11    1
    24    11    12    1
    25    12    13   ar
    26    13    14   ar
    27    14    15   ar
    28    15    16   ar
    29    16    17   ar
    30    16    18    1
    31    18    19   am
    32    19    20    2
    33    19    21    1
    34    21    22    1
    35     4     5    1
    36     5     6    1
    37     4     7    1
    38     7     8    1
    39    40    41   ar
    40    41    42   ar
    41    42    32   ar
    42    41    35   ar
    43     6     1    1
    44     8     1    1
    45    17    12   ar
    46    22    15    1
    47    25    26    1
    48     9    10    1
    49    18    23    1
@<TRIPOS>MOLECULE
*****
 44 49 0 0 0
SMALL
GASTEIGER

@<TRIPOS>ATOM
      1 C         140.5910  143.4951  162.3009 C.3     1  UNL1        0.1078
      2 C         140.0128  143.9747  163.5993 C.3     1  UNL1        0.0300
      3 C         139.0483  143.1101  164.3556 C.3     1  UNL1        0.0194
      4 C         138.6618  141.7659  163.8136 C.3     1  UNL1        0.0700
      5 C         139.2400  141.2863  162.5153 C.3     1  UNL1        0.0194
      6 C         140.2046  142.1509  161.7589 C.3     1  UNL1        0.0300
      7 C         139.1940  142.2041  163.3635 C.3     1  UNL1        0.1562
      8 O         140.0662  142.9859  162.6796 O.3     1  UNL1       -0.3558
      9 N         137.6973  140.9013  164.5699 N.3     1  UNL1       -0.2926
     10 H         137.0124  140.5631  163.8939 H       1  UNL1        0.1236
     11 C         138.1947  139.7011  165.3198 C.3     1  UNL1        0.1152
     12 C         139.4124  139.8113  166.1887 C.ar    1  UNL1        0.0765
     13 C         140.7224  139.2520  165.7184 C.ar    1  UNL1        0.0193
     14 C         141.9401  139.3622  166.5872 C.ar    1  UNL1        0.0411
     15 C         141.8479  140.0316  167.9264 C.ar    1  UNL1        0.1708
     16 C         140.5380  140.5908  168.3967 C.ar    1  UNL1        0.1682
     17 N         139.3202  140.4807  167.5278 N.ar    1  UNL1       -0.2304
     18 N         140.4458  141.2602  169.7359 N.am    1  UNL1       -0.2639
     19 C         141.6635  141.3704  170.6047 C.2     1  UNL1        0.2718
     20 O         141.5713  142.0398  171.9439 O.2     1  UNL1       -0.2707
     21 C         142.9735  140.8111  170.1344 C.3     1  UNL1        0.2898
     22 O         143.0657  140.1417  168.7953 O.3     1  UNL1       -0.4628
     23 H         139.5860  141.6273  170.0446 H       1  UNL1        0.1565
     24 C         141.5555  144.3597  161.5446 C.3     1  UNL1        0.1043
     25 N         141.0436  145.4513  160.6522 N.3     1  UNL1       -0.1820
     26 H         141.7217  146.2118  160.6987 H       1  UNL1        0.1485
     27 S         140.7984  145.1780  159.1979 S.O2    1  UNL1        0.0426
     28 C         140.5532  144.9047  157.7435 C.3     1  UNL1        0.1957
     29 O         142.1326  145.7749  158.8608 O.2     1  UNL1       -0.1575
     30 O         139.4643  144.5812  159.5350 O.2     1  UNL1       -0.1575
     31 C         143.0320  144.1327  161.6806 C.3     1  UNL1        0.0500
     32 C         143.8567  139.7184  161.3900 C.ar    1  UNL1        0.2250
     33 C         144.3952  138.9763  162.5771 C.ar    1  UNL1        0.0593
     34 C         144.6588  139.7056  163.8611 C.ar    1  UNL1        0.0254
     35 C         144.3839  141.1770  163.9580 C.ar    1  UNL1        0.0990
     36 N         144.6476  141.9063  165.2420 N.ar    1  UNL1       -0.2400
     37 C         144.3727  143.3777  165.3388 C.ar    1  UNL1        0.1281
     38 C         143.8342  144.1199  164.1517 C.ar    1  UNL1        0.1567
     39 F         143.5593  145.5913  164.2486 F       1  UNL1       -0.2028
     40 C         143.5705  143.3906  162.8677 C.ar    1  UNL1        0.0275
     41 C         143.8454  141.9191  162.7709 C.ar    1  UNL1        0.1002
     42 N         143.5818  141.1898  161.4869 N.ar    1  UNL1       -0.2104
     43 C         142.7892  137.7227  160.1142 C.3     1  UNL1        0.2542
     44 O         143.5930  138.9891  160.1060 O.3     1  UNL1       -0.4561
@<TRIPOS>BOND
     1    43    44    1
     2    44    32    1
     3    32    33   ar
     4    33    34   ar
     5    34    35   ar
     6    35    36   ar
     7    36    37   ar
     8    37    38   ar
     9    38    39    1
    10    38    40   ar
    11    40    31    1
    12    31    24    1
    13    24    25    1
    14    25    27    1
    15    27    28    1
    16    27    29    2
    17    27    30    2
    18    24     1    1
    19     1     2    1
    20     2     3    1
    21     3     4    1
    22     4     9    1
    23     9    11    1
    24    11    12    1
    25    12    13   ar
    26    13    14   ar
    27    14    15   ar
    28    15    16   ar
    29    16    17   ar
    30    16    18    1
    31    18    19   am
    32    19    20    2
    33    19    21    1
    34    21    22    1
    35     4     5    1
    36     5     6    1
    37     4     7    1
    38     7     8    1
    39    40    41   ar
    40    41    42   ar
    41    42    32   ar
    42    41    35   ar
    43     6     1    1
    44     8     1    1
    45    17    12   ar
    46    22    15    1
    47    25    26    1
    48     9    10    1
    49    18    23    1
@<TRIPOS>MOLECULE
*****
 44 49 0 0 0
SMALL
GASTEIGER

@<TRIPOS>ATOM
      1 C         140.4684  140.0705  160.5261 C.3     1  UNL1        0.1078
      2 C         141.3030  141.2946  160.7608 C.3     1  UNL1        0.0300
      3 C         142.6834  141.1628  161.3325 C.3     1  UNL1        0.0194
      4 C         143.2293  139.8069  161.6697 C.3     1  UNL1        0.0700
      5 C         142.3947  138.5829  161.4351 C.3     1  UNL1        0.0194
      6 C         141.0142  138.7147  160.8632 C.3     1  UNL1        0.0300
      7 C         142.4674  139.8290  161.3584 C.3     1  UNL1        0.1562
      8 O         141.2191  139.9482  160.8414 O.3     1  UNL1       -0.3558
      9 N         144.6098  139.6752  162.2415 N.3     1  UNL1       -0.2926
     10 H         145.1172  140.5217  161.9839 H       1  UNL1        0.1236
     11 C         144.7954  139.4916  163.7186 C.3     1  UNL1        0.1152
     12 C         143.9535  140.2730  164.6831 C.ar    1  UNL1        0.0765
     13 C         144.1653  141.7499  164.8379 C.ar    1  UNL1        0.0193
     14 C         143.3234  142.5314  165.8025 C.ar    1  UNL1        0.0411
     15 C         142.2695  141.8360  166.6123 C.ar    1  UNL1        0.1708
     16 C         142.0576  140.3591  166.4575 C.ar    1  UNL1        0.1682
     17 N         142.8996  139.5776  165.4929 N.ar    1  UNL1       -0.2304
     18 N         141.0038  139.6637  167.2673 N.am    1  UNL1       -0.2639
     19 C         140.1618  140.4451  168.2319 C.2     1  UNL1        0.2718
     20 O         139.1079  139.7497  169.0417 O.2     1  UNL1       -0.2707
     21 C         140.3737  141.9221  168.3867 C.3     1  UNL1        0.2898
     22 O         141.4275  142.6175  167.5769 O.3     1  UNL1       -0.4628
     23 H         140.8647  138.6944  167.1658 H       1  UNL1        0.1565
     24 C         139.0879  140.2023  159.9543 C.3     1  UNL1        0.1043
     25 N         138.8799  140.1237  158.4709 N.3     1  UNL1       -0.1820
     26 H         138.3503  139.2703  158.2927 H       1  UNL1        0.1485
     27 S         138.1687  141.2324  157.7535 S.O2    1  UNL1        0.0426
     28 C         137.4575  142.3412  157.0361 C.3     1  UNL1        0.1957
     29 O         139.3641  142.1192  157.9390 O.2     1  UNL1       -0.1575
     30 O         136.9733  140.3456  157.5680 O.2     1  UNL1       -0.1575
     31 C         137.9154  140.4127  160.8660 C.3     1  UNL1        0.0500
     32 C         138.4651  144.4075  162.8635 C.ar    1  UNL1        0.2250
     33 C         138.6725  144.4819  164.3471 C.ar    1  UNL1        0.0593
     34 C         138.6968  143.2247  165.1650 C.ar    1  UNL1        0.0254
     35 C         138.5136  141.8931  164.4993 C.ar    1  UNL1        0.0990
     36 N         138.5378  140.6360  165.3172 N.ar    1  UNL1       -0.2400
     37 C         138.3546  139.3044  164.6514 C.ar    1  UNL1        0.1281
     38 C         138.1472  139.2299  163.1676 C.ar    1  UNL1        0.1567
     39 F         137.9640  137.8984  162.5018 F       1  UNL1       -0.2028
     40 C         138.1229  140.4871  162.3497 C.ar    1  UNL1        0.0275
     41 C         138.3061  141.8187  163.0156 C.ar    1  UNL1        0.1002
     42 N         138.2819  143.0759  162.1977 N.ar    1  UNL1       -0.2104
     43 C         139.7259  146.3466  161.6802 C.3     1  UNL1        0.2542
     44 O         138.4408  145.6646  162.0456 O.3     1  UNL1       -0.4561
@<TRIPOS>BOND
     1    43    44    1
     2    44    32    1
     3    32    33   ar
     4    33    34   ar
     5    34    35   ar
     6    35    36   ar
     7    36    37   ar
     8    37    38   ar
     9    38    39    1
    10    38    40   ar
    11    40    31    1
    12    31    24    1
    13    24    25    1
    14    25    27    1
    15    27    28    1
    16    27    29    2
    17    27    30    2
    18    24     1    1
    19     1     2    1
    20     2     3    1
    21     3     4    1
    22     4     9    1
    23     9    11    1
    24    11    12    1
    25    12    13   ar
    26    13    14   ar
    27    14    15   ar
    28    15    16   ar
    29    16    17   ar
    30    16    18    1
    31    18    19   am
    32    19    20    2
    33    19    21    1
    34    21    22    1
    35     4     5    1
    36     5     6    1
    37     4     7    1
    38     7     8    1
    39    40    41   ar
    40    41    42   ar
    41    42    32   ar
    42    41    35   ar
    43     6     1    1
    44     8     1    1
    45    17    12   ar
    46    22    15    1
    47    25    26    1
    48     9    10    1
    49    18    23    1
@<TRIPOS>MOLECULE
*****
 44 49 0 0 0
SMALL
GASTEIGER

@<TRIPOS>ATOM
      1 C         141.5935  142.5301  166.3330 C.3     1  UNL1        0.1078
      2 C         142.3310  142.9411  165.0932 C.3     1  UNL1        0.0300
      3 C         141.6850  143.8718  164.1101 C.3     1  UNL1        0.0194
      4 C         140.3015  144.3915  164.3669 C.3     1  UNL1        0.0700
      5 C         139.5640  143.9805  165.6067 C.3     1  UNL1        0.0194
      6 C         140.2101  143.0497  166.5898 C.3     1  UNL1        0.0300
      7 C         140.6142  143.8837  164.9345 C.3     1  UNL1        0.1562
      8 O         141.1983  143.0421  165.8235 O.3     1  UNL1       -0.3558
      9 N         139.6555  145.3222  163.3838 N.3     1  UNL1       -0.2926
     10 H         140.3893  145.6341  162.7476 H       1  UNL1        0.1236
     11 C         138.5188  144.8415  162.5313 C.3     1  UNL1        0.1152
     12 C         138.5188  143.4376  162.0032 C.ar    1  UNL1        0.0765
     13 C         137.6657  142.3907  162.6562 C.ar    1  UNL1        0.0193
     14 C         137.6657  140.9867  162.1281 C.ar    1  UNL1        0.0411
     15 C         138.5188  140.6296  160.9471 C.ar    1  UNL1        0.1708
     16 C         139.3718  141.6765  160.2942 C.ar    1  UNL1        0.1682
     17 N         139.3719  143.0805  160.8222 N.ar    1  UNL1       -0.2304
     18 N         140.2249  141.3193  159.1132 N.am    1  UNL1       -0.2639
     19 C         140.2249  139.9154  158.5852 C.2     1  UNL1        0.2718
     20 O         141.0780  139.5583  157.4042 O.2     1  UNL1       -0.2707
     21 C         139.3718  138.8685  159.2381 C.3     1  UNL1        0.2898
     22 O         138.5188  139.2256  160.4191 O.3     1  UNL1       -0.4628
     23 H         140.7848  142.0064  158.6847 H       1  UNL1        0.1565
     24 C         142.2395  141.5994  167.3161 C.3     1  UNL1        0.1043
     25 N         143.0429  142.1521  168.4558 N.3     1  UNL1       -0.1820
     26 H         143.1404  143.1536  168.2889 H       1  UNL1        0.1485
     27 S         142.5535  141.9935  169.8648 S.O2    1  UNL1        0.0426
     28 C         142.0641  141.8349  171.2738 C.3     1  UNL1        0.1957
     29 O         141.6407  143.1693  169.6801 O.2     1  UNL1       -0.1575
     30 O         143.4663  140.8177  170.0495 O.2     1  UNL1       -0.1575
     31 C         142.0821  140.1158  167.1594 C.3     1  UNL1        0.0500
     32 C         141.7937  138.0933  163.1500 C.ar    1  UNL1        0.2250
     33 C         140.4849  137.5223  162.6904 C.ar    1  UNL1        0.0593
     34 C         139.2723  137.6256  163.5673 C.ar    1  UNL1        0.0254
     35 C         139.3685  138.2997  164.9038 C.ar    1  UNL1        0.0990
     36 N         138.1559  138.4030  165.7807 N.ar    1  UNL1       -0.2400
     37 C         138.2520  139.0771  167.1171 C.ar    1  UNL1        0.1281
     38 C         139.5607  139.6481  167.5768 C.ar    1  UNL1        0.1567
     39 F         139.6569  140.3223  168.9132 F       1  UNL1       -0.2028
     40 C         140.7733  139.5449  166.6999 C.ar    1  UNL1        0.0275
     41 C         140.6772  138.8707  165.3633 C.ar    1  UNL1        0.1002
     42 N         141.8898  138.7674  164.4864 N.ar    1  UNL1       -0.2104
     43 C         144.1134  138.9937  162.4029 C.3     1  UNL1        0.2542
     44 O         143.0062  137.9900  162.2731 O.3     1  UNL1       -0.4561
@<TRIPOS>BOND
     1    43    44    1
     2    44    32    1
     3    32    33   ar
     4    33    34   ar
     5    34    35   ar
     6    35    36   ar
     7    36    37   ar
     8    37    38   ar
     9    38    39    1
    10    38    40   ar
    11    40    31    1
    12    31    24    1
    13    24    25    1
    14    25    27    1
    15    27    28    1
    16    27    29    2
    17    27    30    2
    18    24     1    1
    19     1     2    1
    20     2     3    1
    21     3     4    1
    22     4     9    1
    23     9    11    1
    24    11    12    1
    25    12    13   ar
    26    13    14   ar
    27    14    15   ar
    28    15    16   ar
    29    16    17   ar
    30    16    18    1
    31    18    19   am
    32    19    20    2
    33    19    21    1
    34    21    22    1
    35     4     5    1
    36     5     6    1
    37     4     7    1
    38     7     8    1
    39    40    41   ar
    40    41    42   ar
    41    42    32   ar
    42    41    35   ar
    43     6     1    1
    44     8     1    1
    45    17    12   ar
    46    22    15    1
    47    25    26    1
    48     9    10    1
    49    18    23    1
@<TRIPOS>MOLECULE
*****
 44 49 0 0 0
SMALL
GASTEIGER

@<TRIPOS>ATOM
      1 C         143.0083  140.3341  160.5206 C.3     1  UNL1        0.1078
      2 C         141.5375  140.3302  160.8150 C.3     1  UNL1        0.0300
      3 C         140.9294  139.1943  161.5830 C.3     1  UNL1        0.0194
      4 C         141.7921  138.0623  162.0567 C.3     1  UNL1        0.0700
      5 C         143.2629  138.0662  161.7623 C.3     1  UNL1        0.0194
      6 C         143.8710  139.2022  160.9942 C.3     1  UNL1        0.0300
      7 C         142.1706  138.6627  161.6394 C.3     1  UNL1        0.1562
      8 O         142.7205  139.6898  160.9449 O.3     1  UNL1       -0.3558
      9 N         141.1840  136.9264  162.8247 N.3     1  UNL1       -0.2926
     10 H         141.6152  136.0706  162.4754 H       1  UNL1        0.1236
     11 C         141.2947  136.8879  164.3202 C.3     1  UNL1        0.1152
     12 C         140.9984  138.1178  165.1261 C.ar    1  UNL1        0.0765
     13 C         139.5896  138.6209  165.2364 C.ar    1  UNL1        0.0193
     14 C         139.2934  139.8508  166.0423 C.ar    1  UNL1        0.0411
     15 C         140.4059  140.5777  166.7379 C.ar    1  UNL1        0.1708
     16 C         141.8147  140.0746  166.6276 C.ar    1  UNL1        0.1682
     17 N         142.1110  138.8446  165.8217 N.ar    1  UNL1       -0.2304
     18 N         142.9273  140.8015  167.3233 N.am    1  UNL1       -0.2639
     19 C         142.6310  142.0314  168.1292 C.2     1  UNL1        0.2718
     20 O         143.7436  142.7582  168.8248 O.2     1  UNL1       -0.2707
     21 C         141.2222  142.5345  168.2395 C.3     1  UNL1        0.2898
     22 O         140.1096  141.8076  167.5439 O.3     1  UNL1       -0.4628
     23 H         143.8519  140.4713  167.2509 H       1  UNL1        0.1565
     24 C         143.6164  141.4700  159.7525 C.3     1  UNL1        0.1043
     25 N         143.4453  141.5457  158.2643 N.3     1  UNL1       -0.1820
     26 H         142.9578  142.4199  158.0680 H       1  UNL1        0.1485
     27 S         144.6478  141.5100  157.3683 S.O2    1  UNL1        0.0426
     28 C         145.8502  141.4743  156.4723 C.3     1  UNL1        0.1957
     29 O         144.4893  142.9767  157.0971 O.2     1  UNL1       -0.1575
     30 O         144.8062  140.0433  157.6395 O.2     1  UNL1       -0.1575
     31 C         144.3957  142.5303  160.4728 C.3     1  UNL1        0.0500
     32 C         140.8060  145.2028  160.9435 C.ar    1  UNL1        0.2250
     33 C         140.3781  145.6502  162.3098 C.ar    1  UNL1        0.0593
     34 C         141.1468  145.2068  163.5191 C.ar    1  UNL1        0.0254
     35 C         142.3434  144.3160  163.3622 C.ar    1  UNL1        0.0990
     36 N         143.1121  143.8727  164.5716 N.ar    1  UNL1       -0.2400
     37 C         144.3086  142.9819  164.4147 C.ar    1  UNL1        0.1281
     38 C         144.7365  142.5344  163.0484 C.ar    1  UNL1        0.1567
     39 F         145.9331  141.6436  162.8915 F       1  UNL1       -0.2028
     40 C         143.9678  142.9777  161.8390 C.ar    1  UNL1        0.0275
     41 C         142.7712  143.8686  161.9960 C.ar    1  UNL1        0.1002
     42 N         142.0025  144.3120  160.7866 N.ar    1  UNL1       -0.2104
     43 C         140.1975  144.9153  158.4342 C.3     1  UNL1        0.2542
     44 O         140.0373  145.6461  159.7342 O.3     1  UNL1       -0.4561
@<TRIPOS>BOND
     1    43    44    1
     2    44    32    1
     3    32    33   ar
     4    33    34   ar
     5    34    35   ar
     6    35    36   ar
     7    36    37   ar
     8    37    38   ar
     9    38    39    1
    10    38    40   ar
    11    40    31    1
    12    31    24    1
    13    24    25    1
    14    25    27    1
    15    27    28    1
    16    27    29    2
    17    27    30    2
    18    24     1    1
    19     1     2    1
    20     2     3    1
    21     3     4    1
    22     4     9    1
    23     9    11    1
    24    11    12    1
    25    12    13   ar
    26    13    14   ar
    27    14    15   ar
    28    15    16   ar
    29    16    17   ar
    30    16    18    1
    31    18    19   am
    32    19    20    2
    33    19    21    1
    34    21    22    1
    35     4     5    1
    36     5     6    1
    37     4     7    1
    38     7     8    1
    39    40    41   ar
    40    41    42   ar
    41    42    32   ar
    42    41    35   ar
    43     6     1    1
    44     8     1    1
    45    17    12   ar
    46    22    15    1
    47    25    26    1
    48     9    10    1
    49    18    23    1
