@<TRIPOS>MOLECULE
*****
 39 43 0 0 0
SMALL
GASTEIGER

@<TRIPOS>ATOM
      1 O         144.0514  140.1589  157.4781 O.2     1  UNL1       -0.2733
      2 C         143.6281  138.8517  156.8761 C.2     1  UNL1        0.2425
      3 N         142.9786  137.8064  157.7337 N.am    1  UNL1       -0.3018
      4 H         142.7007  136.9486  157.3386 H       1  UNL1        0.1495
      5 C         142.7523  138.0683  159.1933 C.3     1  UNL1        0.1035
      6 C         143.4489  137.6744  160.4620 C.3     1  UNL1        0.0933
      7 N         142.4323  138.4386  161.2574 N.3     1  UNL1       -0.2711
      8 C         141.7358  138.8325  159.9887 C.3     1  UNL1        0.0933
      9 C         142.2061  138.7004  162.7169 C.3     1  UNL1        0.0576
     10 C         142.6619  139.9930  163.3264 C.3     1  UNL1        0.0163
     11 C         142.4356  140.2549  164.7860 C.3     1  UNL1        0.0058
     12 C         141.7535  139.2242  165.6360 C.3     1  UNL1        0.0254
     13 C         141.2977  137.9316  165.0264 C.3     1  UNL1        0.0058
     14 C         141.5240  137.6697  163.5669 C.3     1  UNL1        0.0163
     15 C         141.5273  139.4860  167.0955 C.ar    1  UNL1        0.0112
     16 C         142.6364  139.2575  168.0793 C.ar    1  UNL1       -0.0013
     17 C         142.4101  139.5193  169.5388 C.ar    1  UNL1       -0.0001
     18 C         141.0748  140.0097  170.0146 C.ar    1  UNL1        0.0031
     19 C         139.9657  140.2382  169.0309 C.ar    1  UNL1        0.0363
     20 C         140.1920  139.9764  167.5713 C.ar    1  UNL1        0.1296
     21 O         139.0829  140.2050  166.5876 O.3     1  UNL1       -0.5058
     22 H         138.2488  140.5113  166.8849 H       1  UNL1        0.2922
     23 C         143.8543  138.5900  155.4166 C.3     1  UNL1        0.1747
     24 N         144.1469  137.1978  154.9408 N.pl3   1  UNL1       -0.3106
     25 H         145.0766  136.8767  154.9002 H       1  UNL1        0.1486
     26 C         143.0227  136.2949  154.5270 C.ar    1  UNL1        0.1320
     27 N         141.9799  136.7870  153.5676 N.ar    1  UNL1       -0.2092
     28 C         140.8559  135.8841  153.1539 C.ar    1  UNL1        0.2000
     29 N         140.7746  134.4892  153.6995 N.ar    1  UNL1       -0.2239
     30 C         141.8174  133.9972  154.6588 C.ar    1  UNL1        0.0857
     31 C         141.7361  132.6023  155.2045 C.ar    1  UNL1        0.0192
     32 C         142.7789  132.1103  156.1638 C.ar    1  UNL1        0.0054
     33 C         143.9031  133.0132  156.5776 C.ar    1  UNL1        0.0716
     34 C         143.9843  134.4081  156.0320 C.ar    1  UNL1        0.0081
     35 C         142.9415  134.9001  155.0726 C.ar    1  UNL1        0.0491
     36 C         144.9459  132.5212  157.5370 C.3     1  UNL1        0.4186
     37 F         145.9887  132.0291  158.4964 F       1  UNL1       -0.1659
     38 F         144.4684  133.5071  158.5616 F       1  UNL1       -0.1659
     39 F         145.4234  131.5352  156.5124 F       1  UNL1       -0.1659
@<TRIPOS>BOND
     1     1     2    2
     2     2    23    1
     3    23    24    1
     4    24    26    1
     5    26    27   ar
     6    27    28   ar
     7    28    29   ar
     8    29    30   ar
     9    30    31   ar
    10    31    32   ar
    11    32    33   ar
    12    33    36    1
    13    36    37    1
    14    36    38    1
    15    36    39    1
    16    33    34   ar
    17    34    35   ar
    18     2     3   am
    19     3     5    1
    20     5     6    1
    21     6     7    1
    22     9     7    1
    23     9    10    1
    24    10    11    1
    25    11    12    1
    26    12    15    1
    27    15    16   ar
    28    16    17   ar
    29    17    18   ar
    30    18    19   ar
    31    19    20   ar
    32    20    21    1
    33    12    13    1
    34    13    14    1
    35     7     8    1
    36    35    26   ar
    37     8     5    1
    38    35    30   ar
    39    14     9    1
    40    20    15   ar
    41    24    25    1
    42     3     4    1
    43    21    22    1
@<TRIPOS>MOLECULE
*****
 39 43 0 0 0
SMALL
GASTEIGER

@<TRIPOS>ATOM
      1 O         141.5792  138.5328  158.7041 O.2     1  UNL1       -0.2733
      2 C         142.8988  138.9807  158.1489 C.2     1  UNL1        0.2425
      3 N         143.8763  139.7025  159.0284 N.am    1  UNL1       -0.3018
      4 H         144.7424  139.9965  158.6641 H       1  UNL1        0.1495
      5 C         143.5342  139.9764  160.4631 C.3     1  UNL1        0.1035
      6 C         143.9997  139.4422  161.7850 C.3     1  UNL1        0.0933
      7 N         143.0503  140.3637  162.4918 N.3     1  UNL1       -0.2711
      8 C         142.5848  140.8980  161.1697 C.3     1  UNL1        0.0933
      9 C         142.7082  140.6376  163.9263 C.3     1  UNL1        0.0576
     10 C         143.5097  141.6331  164.7116 C.3     1  UNL1        0.0163
     11 C         143.1676  141.9070  166.1462 C.3     1  UNL1        0.0058
     12 C         142.0240  141.1855  166.7954 C.3     1  UNL1        0.0254
     13 C         141.2225  140.1900  166.0101 C.3     1  UNL1        0.0058
     14 C         141.5646  139.9161  164.5756 C.3     1  UNL1        0.0163
     15 C         141.6819  141.4594  168.2299 C.ar    1  UNL1        0.0112
     16 C         140.8515  142.6564  168.5876 C.ar    1  UNL1       -0.0013
     17 C         140.5094  142.9303  170.0221 C.ar    1  UNL1       -0.0001
     18 C         140.9975  142.0072  171.0990 C.ar    1  UNL1        0.0031
     19 C         141.8279  140.8103  170.7414 C.ar    1  UNL1        0.0363
     20 C         142.1700  140.5364  169.3069 C.ar    1  UNL1        0.1296
     21 O         143.0003  139.3395  168.9492 O.3     1  UNL1       -0.5058
     22 H         143.3053  138.7629  169.6220 H       1  UNL1        0.2922
     23 C         143.2409  138.7068  156.7144 C.3     1  UNL1        0.1747
     24 N         143.7704  137.3620  156.3132 N.pl3   1  UNL1       -0.3106
     25 H         144.5501  136.9812  156.7784 H       1  UNL1        0.1486
     26 C         143.1121  136.5973  155.2033 C.ar    1  UNL1        0.1320
     27 N         142.3386  137.3273  154.1455 N.ar    1  UNL1       -0.2092
     28 C         141.6803  136.5627  153.0357 C.ar    1  UNL1        0.2000
     29 N         141.7954  135.0680  152.9835 N.ar    1  UNL1       -0.2239
     30 C         142.5689  134.3380  154.0412 C.ar    1  UNL1        0.0857
     31 C         142.6840  132.8433  153.9891 C.ar    1  UNL1        0.0192
     32 C         143.4574  132.1133  155.0468 C.ar    1  UNL1        0.0054
     33 C         144.1158  132.8780  156.1567 C.ar    1  UNL1        0.0716
     34 C         144.0007  134.3726  156.2089 C.ar    1  UNL1        0.0081
     35 C         143.2272  135.1027  155.1511 C.ar    1  UNL1        0.0491
     36 C         144.8892  132.1480  157.2145 C.3     1  UNL1        0.4186
     37 F         145.6627  131.4179  158.2722 F       1  UNL1       -0.1659
     38 F         144.4846  133.1813  158.2236 F       1  UNL1       -0.1659
     39 F         145.2939  131.1146  156.2053 F       1  UNL1       -0.1659
@<TRIPOS>BOND
     1     1     2    2
     2     2    23    1
     3    23    24    1
     4    24    26    1
     5    26    27   ar
     6    27    28   ar
     7    28    29   ar
     8    29    30   ar
     9    30    31   ar
    10    31    32   ar
    11    32    33   ar
    12    33    36    1
    13    36    37    1
    14    36    38    1
    15    36    39    1
    16    33    34   ar
    17    34    35   ar
    18     2     3   am
    19     3     5    1
    20     5     6    1
    21     6     7    1
    22     9     7    1
    23     9    10    1
    24    10    11    1
    25    11    12    1
    26    12    15    1
    27    15    16   ar
    28    16    17   ar
    29    17    18   ar
    30    18    19   ar
    31    19    20   ar
    32    20    21    1
    33    12    13    1
    34    13    14    1
    35     7     8    1
    36    35    26   ar
    37     8     5    1
    38    35    30   ar
    39    14     9    1
    40    20    15   ar
    41    24    25    1
    42     3     4    1
    43    21    22    1
@<TRIPOS>MOLECULE
*****
 39 43 0 0 0
SMALL
GASTEIGER

@<TRIPOS>ATOM
      1 O         142.1551  137.9735  158.2496 O.2     1  UNL1       -0.2733
      2 C         140.8363  137.8994  157.5386 C.2     1  UNL1        0.2425
      3 N         139.5762  138.2887  158.2530 N.am    1  UNL1       -0.3018
      4 H         138.7106  138.2401  157.7864 H       1  UNL1        0.1495
      5 C         139.6348  138.7521  159.6785 C.3     1  UNL1        0.1035
      6 C         139.2580  138.1581  161.0032 C.3     1  UNL1        0.0933
      7 N         139.7177  139.4076  161.6943 N.3     1  UNL1       -0.2711
      8 C         140.0945  140.0016  160.3695 C.3     1  UNL1        0.0933
      9 C         139.7763  139.8710  163.1197 C.3     1  UNL1        0.0576
     10 C         141.0291  139.6751  163.9211 C.3     1  UNL1        0.0163
     11 C         141.0878  140.1386  165.3465 C.3     1  UNL1        0.0058
     12 C         139.8937  140.7979  165.9705 C.3     1  UNL1        0.0254
     13 C         138.6409  140.9938  165.1691 C.3     1  UNL1        0.0058
     14 C         138.5822  140.5304  163.7437 C.3     1  UNL1        0.0163
     15 C         139.9523  141.2614  167.3959 C.ar    1  UNL1        0.0112
     16 C         140.6352  142.5526  167.7373 C.ar    1  UNL1       -0.0013
     17 C         140.6939  143.0160  169.1626 C.ar    1  UNL1       -0.0001
     18 C         140.0696  142.1883  170.2467 C.ar    1  UNL1        0.0031
     19 C         139.3867  140.8972  169.9054 C.ar    1  UNL1        0.0363
     20 C         139.3280  140.4337  168.4800 C.ar    1  UNL1        0.1296
     21 O         138.6451  139.1425  168.1387 O.3     1  UNL1       -0.5058
     22 H         138.2552  138.6255  168.8159 H       1  UNL1        0.2922
     23 C         140.7777  137.4360  156.1132 C.3     1  UNL1        0.1747
     24 N         141.9648  136.7583  155.4955 N.pl3   1  UNL1       -0.3106
     25 H         142.8755  137.0442  155.7366 H       1  UNL1        0.1486
     26 C         141.7644  135.6451  154.5103 C.ar    1  UNL1        0.1320
     27 N         140.8794  135.8502  153.3167 N.ar    1  UNL1       -0.2092
     28 C         140.6790  134.7369  152.3315 C.ar    1  UNL1        0.2000
     29 N         141.3635  133.4186  152.5401 N.ar    1  UNL1       -0.2239
     30 C         142.2485  133.2135  153.7337 C.ar    1  UNL1        0.0857
     31 C         142.9330  131.8952  153.9422 C.ar    1  UNL1        0.0192
     32 C         143.8179  131.6901  155.1358 C.ar    1  UNL1        0.0054
     33 C         144.0184  132.8034  156.1210 C.ar    1  UNL1        0.0716
     34 C         143.3339  134.1217  155.9125 C.ar    1  UNL1        0.0081
     35 C         142.4489  134.3267  154.7188 C.ar    1  UNL1        0.0491
     36 C         144.9033  132.5983  157.3146 C.3     1  UNL1        0.4186
     37 F         145.7883  132.3932  158.5083 F       1  UNL1       -0.1659
     38 F         144.0705  133.5685  158.0988 F       1  UNL1       -0.1659
     39 F         145.7362  131.6281  156.5304 F       1  UNL1       -0.1659
@<TRIPOS>BOND
     1     1     2    2
     2     2    23    1
     3    23    24    1
     4    24    26    1
     5    26    27   ar
     6    27    28   ar
     7    28    29   ar
     8    29    30   ar
     9    30    31   ar
    10    31    32   ar
    11    32    33   ar
    12    33    36    1
    13    36    37    1
    14    36    38    1
    15    36    39    1
    16    33    34   ar
    17    34    35   ar
    18     2     3   am
    19     3     5    1
    20     5     6    1
    21     6     7    1
    22     9     7    1
    23     9    10    1
    24    10    11    1
    25    11    12    1
    26    12    15    1
    27    15    16   ar
    28    16    17   ar
    29    17    18   ar
    30    18    19   ar
    31    19    20   ar
    32    20    21    1
    33    12    13    1
    34    13    14    1
    35     7     8    1
    36    35    26   ar
    37     8     5    1
    38    35    30   ar
    39    14     9    1
    40    20    15   ar
    41    24    25    1
    42     3     4    1
    43    21    22    1
@<TRIPOS>MOLECULE
*****
 39 43 0 0 0
SMALL
GASTEIGER

@<TRIPOS>ATOM
      1 O         143.0363  141.2981  163.1223 O.2     1  UNL1       -0.2733
      2 C         141.6418  141.0323  162.6376 C.2     1  UNL1        0.2425
      3 N         141.3585  140.9702  161.1659 N.am    1  UNL1       -0.3018
      4 H         140.4433  140.7958  160.8477 H       1  UNL1        0.1495
      5 C         142.4697  141.1738  160.1789 C.3     1  UNL1        0.1035
      6 C         143.7333  140.4411  159.8384 C.3     1  UNL1        0.0933
      7 N         144.0410  141.4619  158.7832 N.3     1  UNL1       -0.2711
      8 C         142.7772  142.1947  159.1238 C.3     1  UNL1        0.0933
      9 C         145.1520  141.6656  157.7963 C.3     1  UNL1        0.0576
     10 C         145.2020  140.8430  156.5430 C.3     1  UNL1        0.0163
     11 C         146.3131  141.0466  155.5560 C.3     1  UNL1        0.0058
     12 C         147.3742  142.0729  155.8225 C.3     1  UNL1        0.0254
     13 C         147.3242  142.8955  157.0759 C.3     1  UNL1        0.0058
     14 C         146.2131  142.6918  158.0627 C.3     1  UNL1        0.0163
     15 C         148.4853  142.2766  154.8356 C.ar    1  UNL1        0.0112
     16 C         149.7846  141.5470  155.0078 C.ar    1  UNL1       -0.0013
     17 C         150.8956  141.7506  154.0209 C.ar    1  UNL1       -0.0001
     18 C         150.7075  142.6839  152.8617 C.ar    1  UNL1        0.0031
     19 C         149.4083  143.4134  152.6895 C.ar    1  UNL1        0.0363
     20 C         148.2971  143.2098  153.6764 C.ar    1  UNL1        0.1296
     21 O         146.9979  143.9393  153.5041 O.3     1  UNL1       -0.5058
     22 H         146.8804  144.5223  152.7800 H       1  UNL1        0.2922
     23 C         140.5308  140.8287  163.6245 C.3     1  UNL1        0.1747
     24 N         140.8385  140.7212  165.0886 N.pl3   1  UNL1       -0.3106
     25 H         141.6861  141.0771  165.4410 H       1  UNL1        0.1486
     26 C         139.8548  140.0712  166.0160 C.ar    1  UNL1        0.1320
     27 N         138.9259  139.0119  165.5014 N.ar    1  UNL1       -0.2092
     28 C         137.9422  138.3620  166.4287 C.ar    1  UNL1        0.2000
     29 N         137.8875  138.7714  167.8707 N.ar    1  UNL1       -0.2239
     30 C         138.8164  139.8308  168.3854 C.ar    1  UNL1        0.0857
     31 C         138.7616  140.2402  169.8274 C.ar    1  UNL1        0.0192
     32 C         139.6905  141.2995  170.3420 C.ar    1  UNL1        0.0054
     33 C         140.6743  141.9495  169.4146 C.ar    1  UNL1        0.0716
     34 C         140.7290  141.5400  167.9726 C.ar    1  UNL1        0.0081
     35 C         139.8000  140.4806  167.4580 C.ar    1  UNL1        0.0491
     36 C         141.6032  143.0088  169.9293 C.3     1  UNL1        0.4186
     37 F         142.5321  144.0683  170.4439 F       1  UNL1       -0.1659
     38 F         142.6136  141.9553  170.2741 F       1  UNL1       -0.1659
     39 F         140.5927  144.0624  169.5844 F       1  UNL1       -0.1659
@<TRIPOS>BOND
     1     1     2    2
     2     2    23    1
     3    23    24    1
     4    24    26    1
     5    26    27   ar
     6    27    28   ar
     7    28    29   ar
     8    29    30   ar
     9    30    31   ar
    10    31    32   ar
    11    32    33   ar
    12    33    36    1
    13    36    37    1
    14    36    38    1
    15    36    39    1
    16    33    34   ar
    17    34    35   ar
    18     2     3   am
    19     3     5    1
    20     5     6    1
    21     6     7    1
    22     9     7    1
    23     9    10    1
    24    10    11    1
    25    11    12    1
    26    12    15    1
    27    15    16   ar
    28    16    17   ar
    29    17    18   ar
    30    18    19   ar
    31    19    20   ar
    32    20    21    1
    33    12    13    1
    34    13    14    1
    35     7     8    1
    36    35    26   ar
    37     8     5    1
    38    35    30   ar
    39    14     9    1
    40    20    15   ar
    41    24    25    1
    42     3     4    1
    43    21    22    1
@<TRIPOS>MOLECULE
*****
 39 43 0 0 0
SMALL
GASTEIGER

@<TRIPOS>ATOM
      1 O         141.5430  137.2881  161.6281 O.2     1  UNL1       -0.2733
      2 C         140.4110  138.2223  161.9380 C.2     1  UNL1        0.2425
      3 N         140.3698  139.5845  161.3113 N.am    1  UNL1       -0.3018
      4 H         139.6269  140.1976  161.5147 H       1  UNL1        0.1495
      5 C         141.4606  140.0125  160.3748 C.3     1  UNL1        0.1035
      6 C         142.9597  139.9707  160.4028 C.3     1  UNL1        0.0933
      7 N         143.0031  140.6178  159.0503 N.3     1  UNL1       -0.2711
      8 C         141.5040  140.6596  159.0222 C.3     1  UNL1        0.0933
      9 C         144.0938  141.0458  158.1137 C.3     1  UNL1        0.0576
     10 C         144.3677  140.2539  156.8696 C.3     1  UNL1        0.0163
     11 C         145.4584  140.6819  155.9330 C.3     1  UNL1        0.0058
     12 C         146.2753  141.9018  156.2405 C.3     1  UNL1        0.0254
     13 C         146.0013  142.6937  157.4847 C.3     1  UNL1        0.0058
     14 C         144.9106  142.2657  158.4213 C.3     1  UNL1        0.0163
     15 C         147.3659  142.3298  155.3040 C.ar    1  UNL1        0.0112
     16 C         148.6981  141.6411  155.3395 C.ar    1  UNL1       -0.0013
     17 C         149.7888  142.0691  154.4030 C.ar    1  UNL1       -0.0001
     18 C         149.5474  143.1857  153.4309 C.ar    1  UNL1        0.0031
     19 C         148.2153  143.8744  153.3954 C.ar    1  UNL1        0.0363
     20 C         147.1246  143.4464  154.3319 C.ar    1  UNL1        0.1296
     21 O         145.7925  144.1350  154.2964 O.3     1  UNL1       -0.5058
     22 H         145.6417  144.8325  153.6892 H       1  UNL1        0.2922
     23 C         139.3203  137.7943  162.8745 C.3     1  UNL1        0.1747
     24 N         139.1456  138.4916  164.1910 N.pl3   1  UNL1       -0.3106
     25 H         138.2629  138.5068  164.6267 H       1  UNL1        0.1486
     26 C         140.3158  139.1659  164.8437 C.ar    1  UNL1        0.1320
     27 N         141.4237  138.3429  165.4312 N.ar    1  UNL1       -0.2092
     28 C         142.5939  139.0172  166.0838 C.ar    1  UNL1        0.2000
     29 N         142.6562  140.5145  166.1489 N.ar    1  UNL1       -0.2239
     30 C         141.5483  141.3375  165.5614 C.ar    1  UNL1        0.0857
     31 C         141.6106  142.8348  165.6264 C.ar    1  UNL1        0.0192
     32 C         140.5027  143.6578  165.0389 C.ar    1  UNL1        0.0054
     33 C         139.3325  142.9835  164.3862 C.ar    1  UNL1        0.0716
     34 C         139.2702  141.4862  164.3211 C.ar    1  UNL1        0.0081
     35 C         140.3781  140.6632  164.9087 C.ar    1  UNL1        0.0491
     36 C         138.2246  143.8065  163.7987 C.3     1  UNL1        0.4186
     37 F         137.1167  144.6296  163.2111 F       1  UNL1       -0.1659
     38 F         137.5440  142.5550  163.3291 F       1  UNL1       -0.1659
     39 F         138.9053  145.0580  164.2682 F       1  UNL1       -0.1659
@<TRIPOS>BOND
     1     1     2    2
     2     2    23    1
     3    23    24    1
     4    24    26    1
     5    26    27   ar
     6    27    28   ar
     7    28    29   ar
     8    29    30   ar
     9    30    31   ar
    10    31    32   ar
    11    32    33   ar
    12    33    36    1
    13    36    37    1
    14    36    38    1
    15    36    39    1
    16    33    34   ar
    17    34    35   ar
    18     2     3   am
    19     3     5    1
    20     5     6    1
    21     6     7    1
    22     9     7    1
    23     9    10    1
    24    10    11    1
    25    11    12    1
    26    12    15    1
    27    15    16   ar
    28    16    17   ar
    29    17    18   ar
    30    18    19   ar
    31    19    20   ar
    32    20    21    1
    33    12    13    1
    34    13    14    1
    35     7     8    1
    36    35    26   ar
    37     8     5    1
    38    35    30   ar
    39    14     9    1
    40    20    15   ar
    41    24    25    1
    42     3     4    1
    43    21    22    1
@<TRIPOS>MOLECULE
*****
 39 43 0 0 0
SMALL
GASTEIGER

@<TRIPOS>ATOM
      1 O         142.3235  138.4437  162.6702 O.2     1  UNL1       -0.2733
      2 C         140.9388  138.1800  162.1571 C.2     1  UNL1        0.2425
      3 N         140.5859  138.5236  160.7403 N.am    1  UNL1       -0.3018
      4 H         139.6772  138.3505  160.4035 H       1  UNL1        0.1495
      5 C         141.6177  139.1309  159.8365 C.3     1  UNL1        0.1035
      6 C         142.8592  138.6322  159.1584 C.3     1  UNL1        0.0933
      7 N         143.0769  139.9897  158.5585 N.3     1  UNL1       -0.2711
      8 C         141.8353  140.4884  159.2367 C.3     1  UNL1        0.0933
      9 C         144.1086  140.5970  157.6549 C.3     1  UNL1        0.0576
     10 C         144.9020  141.7844  158.1138 C.3     1  UNL1        0.0163
     11 C         145.9338  142.3917  157.2101 C.3     1  UNL1        0.0058
     12 C         146.1721  141.8117  155.8475 C.3     1  UNL1        0.0254
     13 C         145.3786  140.6243  155.3886 C.3     1  UNL1        0.0058
     14 C         144.3469  140.0170  156.2922 C.3     1  UNL1        0.0163
     15 C         147.2039  142.4190  154.9438 C.ar    1  UNL1        0.0112
     16 C         148.5509  141.7741  154.8033 C.ar    1  UNL1       -0.0013
     17 C         149.5826  142.3814  153.8997 C.ar    1  UNL1       -0.0001
     18 C         149.2674  143.6336  153.1365 C.ar    1  UNL1        0.0031
     19 C         147.9205  144.2786  153.2769 C.ar    1  UNL1        0.0363
     20 C         146.8887  143.6713  154.1806 C.ar    1  UNL1        0.1296
     21 O         145.5417  144.3162  154.3211 O.3     1  UNL1       -0.5058
     22 H         145.3448  145.0985  153.8443 H       1  UNL1        0.2922
     23 C         139.9071  137.5727  163.0608 C.3     1  UNL1        0.1747
     24 N         138.8555  138.4395  163.6876 N.pl3   1  UNL1       -0.3106
     25 H         138.0921  138.0282  164.1537 H       1  UNL1        0.1486
     26 C         138.9670  139.9331  163.6041 C.ar    1  UNL1        0.1320
     27 N         138.6277  140.6402  162.3255 N.ar    1  UNL1       -0.2092
     28 C         138.7392  142.1337  162.2421 C.ar    1  UNL1        0.2000
     29 N         139.1900  142.9200  163.4372 N.ar    1  UNL1       -0.2239
     30 C         139.5293  142.2129  164.7158 C.ar    1  UNL1        0.0857
     31 C         139.9802  142.9993  165.9109 C.ar    1  UNL1        0.0192
     32 C         140.3195  142.2922  167.1895 C.ar    1  UNL1        0.0054
     33 C         140.2079  140.7986  167.2730 C.ar    1  UNL1        0.0716
     34 C         139.7571  140.0122  166.0778 C.ar    1  UNL1        0.0081
     35 C         139.4178  140.7194  164.7992 C.ar    1  UNL1        0.0491
     36 C         140.5472  140.0915  168.5516 C.3     1  UNL1        0.4186
     37 F         140.8865  139.3843  169.8302 F       1  UNL1       -0.1659
     38 F         142.0038  140.3577  168.3123 F       1  UNL1       -0.1659
     39 F         139.0906  139.8253  168.7909 F       1  UNL1       -0.1659
@<TRIPOS>BOND
     1     1     2    2
     2     2    23    1
     3    23    24    1
     4    24    26    1
     5    26    27   ar
     6    27    28   ar
     7    28    29   ar
     8    29    30   ar
     9    30    31   ar
    10    31    32   ar
    11    32    33   ar
    12    33    36    1
    13    36    37    1
    14    36    38    1
    15    36    39    1
    16    33    34   ar
    17    34    35   ar
    18     2     3   am
    19     3     5    1
    20     5     6    1
    21     6     7    1
    22     9     7    1
    23     9    10    1
    24    10    11    1
    25    11    12    1
    26    12    15    1
    27    15    16   ar
    28    16    17   ar
    29    17    18   ar
    30    18    19   ar
    31    19    20   ar
    32    20    21    1
    33    12    13    1
    34    13    14    1
    35     7     8    1
    36    35    26   ar
    37     8     5    1
    38    35    30   ar
    39    14     9    1
    40    20    15   ar
    41    24    25    1
    42     3     4    1
    43    21    22    1
@<TRIPOS>MOLECULE
*****
 39 43 0 0 0
SMALL
GASTEIGER

@<TRIPOS>ATOM
      1 O         141.0446  143.4517  164.3867 O.2     1  UNL1       -0.2733
      2 C         142.3121  142.6504  164.4250 C.2     1  UNL1        0.2425
      3 N         142.6706  141.7586  163.2734 N.am    1  UNL1       -0.3018
      4 H         143.5025  141.2327  163.2984 H       1  UNL1        0.1495
      5 C         141.7616  141.6681  162.0835 C.3     1  UNL1        0.1035
      6 C         141.8355  142.1210  160.6555 C.3     1  UNL1        0.0933
      7 N         140.4761  141.5401  160.4009 N.3     1  UNL1       -0.2711
      8 C         140.4023  141.0872  161.8290 C.3     1  UNL1        0.0933
      9 C         139.5672  141.4496  159.2112 C.3     1  UNL1        0.0576
     10 C         138.6082  142.5639  158.9135 C.3     1  UNL1        0.0163
     11 C         137.6992  142.4735  157.7237 C.3     1  UNL1        0.0058
     12 C         137.7492  141.2686  156.8317 C.3     1  UNL1        0.0254
     13 C         138.7082  140.1542  157.1294 C.3     1  UNL1        0.0058
     14 C         139.6171  140.2447  158.3191 C.3     1  UNL1        0.0163
     15 C         136.8402  141.1781  155.6419 C.ar    1  UNL1        0.0112
     16 C         137.2983  141.6879  154.3076 C.ar    1  UNL1       -0.0013
     17 C         136.3893  141.5973  153.1178 C.ar    1  UNL1       -0.0001
     18 C         135.0222  140.9971  153.2623 C.ar    1  UNL1        0.0031
     19 C         134.5642  140.4874  154.5966 C.ar    1  UNL1        0.0363
     20 C         135.4731  140.5778  155.7864 C.ar    1  UNL1        0.1296
     21 O         135.0151  140.0681  157.1207 O.3     1  UNL1       -0.5058
     22 H         134.1611  139.6931  157.2109 H       1  UNL1        0.2922
     23 C         143.2210  142.7409  165.6148 C.3     1  UNL1        0.1747
     24 N         143.2469  141.6323  166.6248 N.pl3   1  UNL1       -0.3106
     25 H         143.5815  140.7421  166.3702 H       1  UNL1        0.1486
     26 C         142.7630  141.8800  168.0229 C.ar    1  UNL1        0.1320
     27 N         143.5849  142.7085  168.9653 N.ar    1  UNL1       -0.2092
     28 C         143.1009  142.9561  170.3633 C.ar    1  UNL1        0.2000
     29 N         141.7951  142.3753  170.8189 N.ar    1  UNL1       -0.2239
     30 C         140.9733  141.5468  169.8765 C.ar    1  UNL1        0.0857
     31 C         139.6675  140.9660  170.3321 C.ar    1  UNL1        0.0192
     32 C         138.8457  140.1375  169.3898 C.ar    1  UNL1        0.0054
     33 C         139.3296  139.8898  167.9917 C.ar    1  UNL1        0.0716
     34 C         140.6354  140.4706  167.5361 C.ar    1  UNL1        0.0081
     35 C         141.4572  141.2992  168.4785 C.ar    1  UNL1        0.0491
     36 C         138.5077  139.0613  167.0493 C.3     1  UNL1        0.4186
     37 F         137.6859  138.2328  166.1068 F       1  UNL1       -0.1659
     38 F         137.4621  138.8907  168.1111 F       1  UNL1       -0.1659
     39 F         139.5534  139.2319  165.9875 F       1  UNL1       -0.1659
@<TRIPOS>BOND
     1     1     2    2
     2     2    23    1
     3    23    24    1
     4    24    26    1
     5    26    27   ar
     6    27    28   ar
     7    28    29   ar
     8    29    30   ar
     9    30    31   ar
    10    31    32   ar
    11    32    33   ar
    12    33    36    1
    13    36    37    1
    14    36    38    1
    15    36    39    1
    16    33    34   ar
    17    34    35   ar
    18     2     3   am
    19     3     5    1
    20     5     6    1
    21     6     7    1
    22     9     7    1
    23     9    10    1
    24    10    11    1
    25    11    12    1
    26    12    15    1
    27    15    16   ar
    28    16    17   ar
    29    17    18   ar
    30    18    19   ar
    31    19    20   ar
    32    20    21    1
    33    12    13    1
    34    13    14    1
    35     7     8    1
    36    35    26   ar
    37     8     5    1
    38    35    30   ar
    39    14     9    1
    40    20    15   ar
    41    24    25    1
    42     3     4    1
    43    21    22    1
@<TRIPOS>MOLECULE
*****
 39 43 0 0 0
SMALL
GASTEIGER

@<TRIPOS>ATOM
      1 O         141.9007  137.4668  161.5625 O.2     1  UNL1       -0.2733
      2 C         140.9572  138.4936  162.1154 C.2     1  UNL1        0.2425
      3 N         141.0451  139.9182  161.6542 N.am    1  UNL1       -0.3018
      4 H         140.4258  140.5922  162.0171 H       1  UNL1        0.1495
      5 C         142.0764  140.3161  160.6402 C.3     1  UNL1        0.1035
      6 C         142.0571  141.0885  159.3546 C.3     1  UNL1        0.0933
      7 N         143.5349  140.8786  159.2063 N.3     1  UNL1       -0.2711
      8 C         143.5542  140.1062  160.4919 C.3     1  UNL1        0.0933
      9 C         144.5663  141.2764  158.1924 C.3     1  UNL1        0.0576
     10 C         145.4694  142.4439  158.4595 C.3     1  UNL1        0.0163
     11 C         146.5008  142.8417  157.4456 C.3     1  UNL1        0.0058
     12 C         146.6290  142.0721  156.1645 C.3     1  UNL1        0.0254
     13 C         145.7258  140.9045  155.8973 C.3     1  UNL1        0.0058
     14 C         144.6945  140.5068  156.9113 C.3     1  UNL1        0.0163
     15 C         147.6603  142.4699  155.1505 C.ar    1  UNL1        0.0112
     16 C         148.9674  141.7370  155.0829 C.ar    1  UNL1       -0.0013
     17 C         149.9987  142.1348  154.0690 C.ar    1  UNL1       -0.0001
     18 C         149.7230  143.2654  153.1227 C.ar    1  UNL1        0.0031
     19 C         148.4160  143.9983  153.1902 C.ar    1  UNL1        0.0363
     20 C         147.3846  143.6005  154.2042 C.ar    1  UNL1        0.1296
     21 O         146.0776  144.3334  154.2718 O.3     1  UNL1       -0.5058
     22 H         145.9054  145.0397  153.6806 H       1  UNL1        0.2922
     23 C         139.9259  138.0957  163.1293 C.3     1  UNL1        0.1747
     24 N         139.0513  139.1392  163.7588 N.pl3   1  UNL1       -0.3106
     25 H         138.5514  139.7699  163.1917 H       1  UNL1        0.1486
     26 C         138.9384  139.2218  165.2523 C.ar    1  UNL1        0.1320
     27 N         137.7870  138.5656  165.9548 N.ar    1  UNL1       -0.2092
     28 C         137.6741  138.6482  167.4482 C.ar    1  UNL1        0.2000
     29 N         138.7127  139.3871  168.2391 N.ar    1  UNL1       -0.2239
     30 C         139.8641  140.0432  167.5366 C.ar    1  UNL1        0.0857
     31 C         140.9027  140.7821  168.3275 C.ar    1  UNL1        0.0192
     32 C         142.0541  141.4383  167.6250 C.ar    1  UNL1        0.0054
     33 C         142.1670  141.3557  166.1315 C.ar    1  UNL1        0.0716
     34 C         141.1284  140.6168  165.3406 C.ar    1  UNL1        0.0081
     35 C         139.9770  139.9606  166.0432 C.ar    1  UNL1        0.0491
     36 C         143.3184  142.0119  165.4290 C.3     1  UNL1        0.4186
     37 F         144.4699  142.6681  164.7264 F       1  UNL1       -0.1659
     38 F         143.6510  142.7684  166.6807 F       1  UNL1       -0.1659
     39 F         142.9858  141.2553  164.1772 F       1  UNL1       -0.1659
@<TRIPOS>BOND
     1     1     2    2
     2     2    23    1
     3    23    24    1
     4    24    26    1
     5    26    27   ar
     6    27    28   ar
     7    28    29   ar
     8    29    30   ar
     9    30    31   ar
    10    31    32   ar
    11    32    33   ar
    12    33    36    1
    13    36    37    1
    14    36    38    1
    15    36    39    1
    16    33    34   ar
    17    34    35   ar
    18     2     3   am
    19     3     5    1
    20     5     6    1
    21     6     7    1
    22     9     7    1
    23     9    10    1
    24    10    11    1
    25    11    12    1
    26    12    15    1
    27    15    16   ar
    28    16    17   ar
    29    17    18   ar
    30    18    19   ar
    31    19    20   ar
    32    20    21    1
    33    12    13    1
    34    13    14    1
    35     7     8    1
    36    35    26   ar
    37     8     5    1
    38    35    30   ar
    39    14     9    1
    40    20    15   ar
    41    24    25    1
    42     3     4    1
    43    21    22    1
@<TRIPOS>MOLECULE
*****
 39 43 0 0 0
SMALL
GASTEIGER

@<TRIPOS>ATOM
      1 O         137.3489  141.8111  162.3403 O.2     1  UNL1       -0.2733
      2 C         138.1660  143.0690  162.3338 C.2     1  UNL1        0.2425
      3 N         139.3662  143.1791  161.4409 N.am    1  UNL1       -0.3018
      4 H         139.9026  144.0046  161.4366 H       1  UNL1        0.1495
      5 C         139.7493  142.0312  160.5543 C.3     1  UNL1        0.1035
      6 C         139.9992  141.8634  159.0850 C.3     1  UNL1        0.0933
      7 N         140.2909  140.4079  159.3007 N.3     1  UNL1       -0.2711
      8 C         140.0410  140.5758  160.7702 C.3     1  UNL1        0.0933
      9 C         140.6740  139.2601  158.4143 C.3     1  UNL1        0.0576
     10 C         142.1162  138.8752  158.2669 C.3     1  UNL1        0.0163
     11 C         142.4993  137.7273  157.3804 C.3     1  UNL1        0.0058
     12 C         141.4400  136.9645  156.6414 C.3     1  UNL1        0.0254
     13 C         139.9978  137.3494  156.7889 C.3     1  UNL1        0.0058
     14 C         139.6147  138.4972  157.6753 C.3     1  UNL1        0.0163
     15 C         141.8231  135.8166  155.7550 C.ar    1  UNL1        0.0112
     16 C         142.3724  134.5564  156.3551 C.ar    1  UNL1       -0.0013
     17 C         142.7554  133.4086  155.4687 C.ar    1  UNL1       -0.0001
     18 C         142.5891  133.5209  153.9821 C.ar    1  UNL1        0.0031
     19 C         142.0398  134.7811  153.3821 C.ar    1  UNL1        0.0363
     20 C         141.6568  135.9290  154.2685 C.ar    1  UNL1        0.1296
     21 O         141.1075  137.1892  153.6684 O.3     1  UNL1       -0.5058
     22 H         141.0036  137.2594  152.7398 H       1  UNL1        0.2922
     23 C         137.7830  144.2167  163.2203 C.3     1  UNL1        0.1747
     24 N         138.6445  144.5781  164.3938 N.pl3   1  UNL1       -0.3106
     25 H         138.2346  144.9390  165.2129 H       1  UNL1        0.1486
     26 C         140.1308  144.3894  164.3194 C.ar    1  UNL1        0.1320
     27 N         140.9472  145.2280  163.3812 N.ar    1  UNL1       -0.2092
     28 C         142.4334  145.0394  163.3068 C.ar    1  UNL1        0.2000
     29 N         143.1032  144.0122  164.1706 N.ar    1  UNL1       -0.2239
     30 C         142.2869  143.1736  165.1088 C.ar    1  UNL1        0.0857
     31 C         142.9567  142.1463  165.9726 C.ar    1  UNL1        0.0192
     32 C         142.1403  141.3077  166.9107 C.ar    1  UNL1        0.0054
     33 C         140.6540  141.4963  166.9852 C.ar    1  UNL1        0.0716
     34 C         139.9842  142.5236  166.1214 C.ar    1  UNL1        0.0081
     35 C         140.8007  143.3622  165.1832 C.ar    1  UNL1        0.0491
     36 C         139.8376  140.6577  167.9234 C.3     1  UNL1        0.4186
     37 F         139.0212  139.8190  168.8616 F       1  UNL1       -0.1659
     38 F         139.8906  141.7522  168.9477 F       1  UNL1       -0.1659
     39 F         139.7847  139.5633  166.8990 F       1  UNL1       -0.1659
@<TRIPOS>BOND
     1     1     2    2
     2     2    23    1
     3    23    24    1
     4    24    26    1
     5    26    27   ar
     6    27    28   ar
     7    28    29   ar
     8    29    30   ar
     9    30    31   ar
    10    31    32   ar
    11    32    33   ar
    12    33    36    1
    13    36    37    1
    14    36    38    1
    15    36    39    1
    16    33    34   ar
    17    34    35   ar
    18     2     3   am
    19     3     5    1
    20     5     6    1
    21     6     7    1
    22     9     7    1
    23     9    10    1
    24    10    11    1
    25    11    12    1
    26    12    15    1
    27    15    16   ar
    28    16    17   ar
    29    17    18   ar
    30    18    19   ar
    31    19    20   ar
    32    20    21    1
    33    12    13    1
    34    13    14    1
    35     7     8    1
    36    35    26   ar
    37     8     5    1
    38    35    30   ar
    39    14     9    1
    40    20    15   ar
    41    24    25    1
    42     3     4    1
    43    21    22    1
