@<TRIPOS>MOLECULE
*****
 32 35 0 0 0
SMALL
GASTEIGER

@<TRIPOS>ATOM
      1 O         143.2214  139.0694  167.4111 O.3     1  UNL1       -0.3793
      2 C         142.8073  140.4434  166.9745 C.3     1  UNL1        0.1422
      3 H         143.1004  138.9846  168.3698 H       1  UNL1        0.2108
      4 C         142.3015  141.4307  167.9843 C.ar    1  UNL1        0.0226
      5 C         143.2528  142.0638  168.9559 C.ar    1  UNL1        0.0012
      6 C         142.7470  143.0510  169.9656 C.ar    1  UNL1        0.0204
      7 C         141.2899  143.4051  170.0037 C.ar    1  UNL1        0.0988
      8 N         140.3386  142.7719  169.0321 N.ar    1  UNL1       -0.2441
      9 C         140.8444  141.7847  168.0224 C.ar    1  UNL1        0.0796
     10 C         139.8930  141.1515  167.0507 C.ar    1  UNL1        0.0174
     11 C         139.4766  141.8949  165.8162 C.ar    1  UNL1        0.0015
     12 C         138.5253  141.2617  164.8446 C.ar    1  UNL1       -0.0000
     13 C         137.9904  139.8852  165.1074 C.ar    1  UNL1        0.0039
     14 C         138.4069  139.1418  166.3419 C.ar    1  UNL1        0.0715
     15 C         139.3582  139.7750  167.3136 C.ar    1  UNL1        0.0053
     16 C         137.8720  137.7653  166.6048 C.3     1  UNL1        0.4186
     17 F         137.3371  136.3888  166.8676 F       1  UNL1       -0.1659
     18 F         137.0075  138.3108  167.7025 F       1  UNL1       -0.1659
     19 F         138.7365  137.2198  165.5070 F       1  UNL1       -0.1659
     20 C         142.8989  140.8302  165.5282 C.3     1  UNL1        0.0787
     21 C         142.7339  139.7887  164.4614 C.ar    1  UNL1        0.0035
     22 C         141.4723  138.9803  164.3912 C.ar    1  UNL1       -0.0007
     23 C         141.3072  137.9388  163.3244 C.ar    1  UNL1        0.0204
     24 C         142.4037  137.7057  162.3278 C.ar    1  UNL1        0.0989
     25 N         143.6653  138.5141  162.3979 N.ar    1  UNL1       -0.2426
     26 C         143.8304  139.5556  163.4647 C.ar    1  UNL1        0.0950
     27 C         143.1556  142.2586  165.1486 C.ar    1  UNL1        0.0035
     28 C         142.1667  142.9975  164.2966 C.ar    1  UNL1       -0.0007
     29 C         142.4234  144.4258  163.9171 C.ar    1  UNL1        0.0204
     30 C         143.6690  145.1151  164.3896 C.ar    1  UNL1        0.0989
     31 N         144.6580  144.3761  165.2415 N.ar    1  UNL1       -0.2426
     32 C         144.4013  142.9479  165.6210 C.ar    1  UNL1        0.0950
@<TRIPOS>BOND
     1     2     1    1
     2     2     4    1
     3     4     5   ar
     4     5     6   ar
     5     6     7   ar
     6     7     8   ar
     7     8     9   ar
     8     9    10    1
     9    10    11   ar
    10    11    12   ar
    11    12    13   ar
    12    13    14   ar
    13    14    16    1
    14    16    17    1
    15    16    18    1
    16    16    19    1
    17    14    15   ar
    18     2    20    1
    19    20    21    1
    20    21    22   ar
    21    22    23   ar
    22    23    24   ar
    23    24    25   ar
    24    25    26   ar
    25    20    27    1
    26    27    28   ar
    27    28    29   ar
    28    29    30   ar
    29    30    31   ar
    30    31    32   ar
    31     9     4   ar
    32    15    10   ar
    33    26    21   ar
    34    32    27   ar
    35     1     3    1
@<TRIPOS>MOLECULE
*****
 32 35 0 0 0
SMALL
GASTEIGER

@<TRIPOS>ATOM
      1 O         143.2248  139.0891  167.4334 O.3     1  UNL1       -0.3793
      2 C         142.8040  140.4590  166.9905 C.3     1  UNL1        0.1422
      3 H         143.1019  139.0073  168.3921 H       1  UNL1        0.2108
      4 C         142.2902  141.4473  167.9952 C.ar    1  UNL1        0.0226
      5 C         143.2345  142.0845  168.9710 C.ar    1  UNL1        0.0012
      6 C         142.7206  143.0727  169.9756 C.ar    1  UNL1        0.0204
      7 C         141.2626  143.4238  170.0044 C.ar    1  UNL1        0.0988
      8 N         140.3183  142.7866  169.0286 N.ar    1  UNL1       -0.2441
      9 C         140.8322  141.7983  168.0239 C.ar    1  UNL1        0.0796
     10 C         139.8879  141.1611  167.0480 C.ar    1  UNL1        0.0174
     11 C         139.4810  141.8990  165.8071 C.ar    1  UNL1        0.0015
     12 C         138.5368  141.2618  164.8312 C.ar    1  UNL1       -0.0000
     13 C         137.9995  139.8866  165.0961 C.ar    1  UNL1        0.0039
     14 C         138.4064  139.1487  166.3371 C.ar    1  UNL1        0.0715
     15 C         139.3506  139.7859  167.3130 C.ar    1  UNL1        0.0053
     16 C         137.8691  137.7735  166.6021 C.3     1  UNL1        0.4186
     17 F         137.3318  136.3984  166.8670 F       1  UNL1       -0.1659
     18 F         137.0250  138.3180  167.7160 F       1  UNL1       -0.1659
     19 F         138.7132  137.2291  165.4881 F       1  UNL1       -0.1659
     20 C         142.8971  140.8407  165.5428 C.3     1  UNL1        0.0787
     21 C         143.1554  142.2674  165.1585 C.ar    1  UNL1        0.0035
     22 C         142.1764  142.9989  164.2886 C.ar    1  UNL1       -0.0007
     23 C         142.4347  144.4256  163.9043 C.ar    1  UNL1        0.0204
     24 C         143.6720  145.1209  164.3898 C.ar    1  UNL1        0.0989
     25 N         144.6509  144.3895  165.2596 N.ar    1  UNL1       -0.2426
     26 C         144.3926  142.9627  165.6440 C.ar    1  UNL1        0.0950
     27 C         142.7318  139.7956  164.4795 C.ar    1  UNL1        0.0035
     28 C         141.4959  138.9462  164.4485 C.ar    1  UNL1       -0.0007
     29 C         141.3307  137.9011  163.3852 C.ar    1  UNL1        0.0204
     30 C         142.4013  137.7056  162.3529 C.ar    1  UNL1        0.0989
     31 N         143.6371  138.5551  162.3840 N.ar    1  UNL1       -0.2426
     32 C         143.8024  139.6001  163.4472 C.ar    1  UNL1        0.0950
@<TRIPOS>BOND
     1     2     1    1
     2     2     4    1
     3     4     5   ar
     4     5     6   ar
     5     6     7   ar
     6     7     8   ar
     7     8     9   ar
     8     9    10    1
     9    10    11   ar
    10    11    12   ar
    11    12    13   ar
    12    13    14   ar
    13    14    16    1
    14    16    17    1
    15    16    18    1
    16    16    19    1
    17    14    15   ar
    18     2    20    1
    19    20    21    1
    20    21    22   ar
    21    22    23   ar
    22    23    24   ar
    23    24    25   ar
    24    25    26   ar
    25    20    27    1
    26    27    28   ar
    27    28    29   ar
    28    29    30   ar
    29    30    31   ar
    30    31    32   ar
    31     9     4   ar
    32    15    10   ar
    33    26    21   ar
    34    32    27   ar
    35     1     3    1
@<TRIPOS>MOLECULE
*****
 32 35 0 0 0
SMALL
GASTEIGER

@<TRIPOS>ATOM
      1 O         143.2068  139.0090  167.3660 O.3     1  UNL1       -0.3793
      2 C         142.7627  140.3758  166.9363 C.3     1  UNL1        0.1422
      3 H         143.0990  138.9210  168.3260 H       1  UNL1        0.2108
      4 C         142.2515  141.3527  167.9534 C.ar    1  UNL1        0.0226
      5 C         143.2093  142.0399  168.8808 C.ar    1  UNL1        0.0012
      6 C         142.6981  143.0167  169.8979 C.ar    1  UNL1        0.0204
      7 C         141.2291  143.3063  169.9875 C.ar    1  UNL1        0.0988
      8 N         140.2712  142.6190  169.0601 N.ar    1  UNL1       -0.2441
      9 C         140.7824  141.6422  168.0430 C.ar    1  UNL1        0.0796
     10 C         139.8246  140.9549  167.1156 C.ar    1  UNL1        0.0174
     11 C         139.3495  139.5656  167.4227 C.ar    1  UNL1        0.0015
     12 C         138.3917  138.8783  166.4953 C.ar    1  UNL1       -0.0000
     13 C         137.9089  139.5802  165.2607 C.ar    1  UNL1        0.0039
     14 C         138.3839  140.9695  164.9535 C.ar    1  UNL1        0.0715
     15 C         139.3418  141.6568  165.8810 C.ar    1  UNL1        0.0053
     16 C         137.9011  141.6714  163.7190 C.3     1  UNL1        0.4186
     17 F         137.4183  142.3733  162.4844 F       1  UNL1       -0.1659
     18 F         137.4464  142.8303  164.5557 F       1  UNL1       -0.1659
     19 F         138.3558  140.5125  162.8822 F       1  UNL1       -0.1659
     20 C         142.8297  140.7658  165.4894 C.3     1  UNL1        0.0787
     21 C         143.0691  142.1967  165.1086 C.ar    1  UNL1        0.0035
     22 C         142.0147  142.9613  164.3644 C.ar    1  UNL1       -0.0007
     23 C         142.2541  144.3922  163.9837 C.ar    1  UNL1        0.0204
     24 C         143.5479  145.0587  164.3470 C.ar    1  UNL1        0.0989
     25 N         144.6022  144.2942  165.0912 N.ar    1  UNL1       -0.2426
     26 C         144.3629  142.8631  165.4720 C.ar    1  UNL1        0.0950
     27 C         142.6574  139.7247  164.4233 C.ar    1  UNL1        0.0035
     28 C         141.3928  138.9207  164.3575 C.ar    1  UNL1       -0.0007
     29 C         141.2205  137.8797  163.2914 C.ar    1  UNL1        0.0204
     30 C         142.3128  137.6427  162.2911 C.ar    1  UNL1        0.0989
     31 N         143.5774  138.4466  162.3568 N.ar    1  UNL1       -0.2426
     32 C         143.7497  139.4876  163.4229 C.ar    1  UNL1        0.0950
@<TRIPOS>BOND
     1     2     1    1
     2     2     4    1
     3     4     5   ar
     4     5     6   ar
     5     6     7   ar
     6     7     8   ar
     7     8     9   ar
     8     9    10    1
     9    10    11   ar
    10    11    12   ar
    11    12    13   ar
    12    13    14   ar
    13    14    16    1
    14    16    17    1
    15    16    18    1
    16    16    19    1
    17    14    15   ar
    18     2    20    1
    19    20    21    1
    20    21    22   ar
    21    22    23   ar
    22    23    24   ar
    23    24    25   ar
    24    25    26   ar
    25    20    27    1
    26    27    28   ar
    27    28    29   ar
    28    29    30   ar
    29    30    31   ar
    30    31    32   ar
    31     9     4   ar
    32    15    10   ar
    33    26    21   ar
    34    32    27   ar
    35     1     3    1
@<TRIPOS>MOLECULE
*****
 32 35 0 0 0
SMALL
GASTEIGER

@<TRIPOS>ATOM
      1 O         143.4064  142.5324  167.0437 O.3     1  UNL1       -0.3793
      2 C         142.4579  142.6462  165.8872 C.3     1  UNL1        0.1422
      3 H         144.3190  142.5930  166.7206 H       1  UNL1        0.2108
      4 C         142.9896  142.8239  164.4959 C.ar    1  UNL1        0.0226
      5 C         143.4983  144.1637  164.0528 C.ar    1  UNL1        0.0012
      6 C         144.0300  144.3414  162.6616 C.ar    1  UNL1        0.0204
      7 C         144.0529  143.1794  161.7133 C.ar    1  UNL1        0.0988
      8 N         143.5441  141.8397  162.1563 N.ar    1  UNL1       -0.2441
      9 C         143.0125  141.6619  163.5476 C.ar    1  UNL1        0.0796
     10 C         142.5037  140.3222  163.9907 C.ar    1  UNL1        0.0174
     11 C         143.2731  139.5247  165.0017 C.ar    1  UNL1        0.0015
     12 C         142.7644  138.1850  165.4448 C.ar    1  UNL1       -0.0000
     13 C         141.4863  137.6427  164.8768 C.ar    1  UNL1        0.0039
     14 C         140.7170  138.4402  163.8658 C.ar    1  UNL1        0.0715
     15 C         141.2257  139.7799  163.4227 C.ar    1  UNL1        0.0053
     16 C         139.4389  137.8979  163.2979 C.3     1  UNL1        0.4186
     17 F         138.1609  137.3557  162.7300 F       1  UNL1       -0.1659
     18 F         140.1730  137.4581  162.0660 F       1  UNL1       -0.1659
     19 F         138.7049  138.3378  164.5298 F       1  UNL1       -0.1659
     20 C         140.9778  142.5821  166.1220 C.3     1  UNL1        0.0787
     21 C         140.0304  143.1077  165.0846 C.ar    1  UNL1        0.0035
     22 C         139.0370  142.1866  164.4406 C.ar    1  UNL1       -0.0007
     23 C         138.0896  142.7122  163.4033 C.ar    1  UNL1        0.0204
     24 C         138.1356  144.1589  163.0098 C.ar    1  UNL1        0.0989
     25 N         139.1290  145.0801  163.6537 N.ar    1  UNL1       -0.2426
     26 C         140.0764  144.5545  164.6912 C.ar    1  UNL1        0.0950
     27 C         140.4451  141.9925  167.3943 C.ar    1  UNL1        0.0035
     28 C         139.9672  140.5709  167.4196 C.ar    1  UNL1       -0.0007
     29 C         139.4345  139.9813  168.6918 C.ar    1  UNL1        0.0204
     30 C         139.3796  140.8133  169.9387 C.ar    1  UNL1        0.0989
     31 N         139.8575  142.2349  169.9134 N.ar    1  UNL1       -0.2426
     32 C         140.3902  142.8245  168.6412 C.ar    1  UNL1        0.0950
@<TRIPOS>BOND
     1     2     1    1
     2     2     4    1
     3     4     5   ar
     4     5     6   ar
     5     6     7   ar
     6     7     8   ar
     7     8     9   ar
     8     9    10    1
     9    10    11   ar
    10    11    12   ar
    11    12    13   ar
    12    13    14   ar
    13    14    16    1
    14    16    17    1
    15    16    18    1
    16    16    19    1
    17    14    15   ar
    18     2    20    1
    19    20    21    1
    20    21    22   ar
    21    22    23   ar
    22    23    24   ar
    23    24    25   ar
    24    25    26   ar
    25    20    27    1
    26    27    28   ar
    27    28    29   ar
    28    29    30   ar
    29    30    31   ar
    30    31    32   ar
    31     9     4   ar
    32    15    10   ar
    33    26    21   ar
    34    32    27   ar
    35     1     3    1
@<TRIPOS>MOLECULE
*****
 32 35 0 0 0
SMALL
GASTEIGER

@<TRIPOS>ATOM
      1 O         143.6449  142.7763  167.5630 O.3     1  UNL1       -0.3793
      2 C         142.2533  142.4555  167.1042 C.3     1  UNL1        0.1422
      3 H         143.7238  142.5894  168.5115 H       1  UNL1        0.2108
      4 C         141.2434  141.9314  168.0818 C.ar    1  UNL1        0.0226
      5 C         140.6181  142.8569  169.0829 C.ar    1  UNL1        0.0012
      6 C         139.6083  142.3327  170.0604 C.ar    1  UNL1        0.0204
      7 C         139.2238  140.8830  170.0368 C.ar    1  UNL1        0.0988
      8 N         139.8492  139.9575  169.0357 N.ar    1  UNL1       -0.2441
      9 C         140.8589  140.4817  168.0582 C.ar    1  UNL1        0.0796
     10 C         141.4843  139.5561  167.0570 C.ar    1  UNL1        0.0174
     11 C         142.9012  139.0992  167.2407 C.ar    1  UNL1        0.0015
     12 C         143.5266  138.1737  166.2396 C.ar    1  UNL1       -0.0000
     13 C         142.7351  137.7051  165.0546 C.ar    1  UNL1        0.0039
     14 C         141.3183  138.1620  164.8709 C.ar    1  UNL1        0.0715
     15 C         140.6929  139.0875  165.8721 C.ar    1  UNL1        0.0053
     16 C         140.5268  137.6934  163.6860 C.3     1  UNL1        0.4186
     17 F         139.7354  137.2249  162.5011 F       1  UNL1       -0.1659
     18 F         139.3040  137.5806  164.5474 F       1  UNL1       -0.1659
     19 F         141.7496  137.8062  162.8246 F       1  UNL1       -0.1659
     20 C         141.8714  142.6588  165.6680 C.3     1  UNL1        0.0787
     21 C         140.4527  142.9872  165.3083 C.ar    1  UNL1        0.0035
     22 C         139.9120  144.3620  165.5684 C.ar    1  UNL1       -0.0007
     23 C         138.4933  144.6903  165.2087 C.ar    1  UNL1        0.0204
     24 C         137.6152  143.6439  164.5891 C.ar    1  UNL1        0.0989
     25 N         138.1558  142.2692  164.3290 N.ar    1  UNL1       -0.2426
     26 C         139.5746  141.9407  164.6887 C.ar    1  UNL1        0.0950
     27 C         142.9084  142.5337  164.5913 C.ar    1  UNL1        0.0035
     28 C         143.5701  141.2118  164.3372 C.ar    1  UNL1       -0.0007
     29 C         144.6070  141.0868  163.2606 C.ar    1  UNL1        0.0204
     30 C         144.9822  142.2837  162.4381 C.ar    1  UNL1        0.0989
     31 N         144.3205  143.6056  162.6921 N.ar    1  UNL1       -0.2426
     32 C         143.2836  143.7306  163.7687 C.ar    1  UNL1        0.0950
@<TRIPOS>BOND
     1     2     1    1
     2     2     4    1
     3     4     5   ar
     4     5     6   ar
     5     6     7   ar
     6     7     8   ar
     7     8     9   ar
     8     9    10    1
     9    10    11   ar
    10    11    12   ar
    11    12    13   ar
    12    13    14   ar
    13    14    16    1
    14    16    17    1
    15    16    18    1
    16    16    19    1
    17    14    15   ar
    18     2    20    1
    19    20    21    1
    20    21    22   ar
    21    22    23   ar
    22    23    24   ar
    23    24    25   ar
    24    25    26   ar
    25    20    27    1
    26    27    28   ar
    27    28    29   ar
    28    29    30   ar
    29    30    31   ar
    30    31    32   ar
    31     9     4   ar
    32    15    10   ar
    33    26    21   ar
    34    32    27   ar
    35     1     3    1
@<TRIPOS>MOLECULE
*****
 32 35 0 0 0
SMALL
GASTEIGER

@<TRIPOS>ATOM
      1 O         139.6256  143.8587  166.7115 O.3     1  UNL1       -0.3793
      2 C         139.6891  142.5513  165.9791 C.3     1  UNL1        0.1422
      3 H         139.3096  144.5511  166.1101 H       1  UNL1        0.2108
      4 C         139.2915  142.4807  164.5345 C.ar    1  UNL1        0.0226
      5 C         137.8440  142.3612  164.1600 C.ar    1  UNL1        0.0012
      6 C         137.4464  142.2906  162.7154 C.ar    1  UNL1        0.0204
      7 C         138.4964  142.3395  161.6453 C.ar    1  UNL1        0.0988
      8 N         139.9440  142.4590  162.0198 N.ar    1  UNL1       -0.2441
      9 C         140.3415  142.5295  163.4644 C.ar    1  UNL1        0.0796
     10 C         141.7891  142.6490  163.8389 C.ar    1  UNL1        0.0174
     11 C         142.3843  143.9986  164.1118 C.ar    1  UNL1        0.0015
     12 C         143.8318  144.1181  164.4864 C.ar    1  UNL1       -0.0000
     13 C         144.6843  142.8880  164.5880 C.ar    1  UNL1        0.0039
     14 C         144.0891  141.5384  164.3151 C.ar    1  UNL1        0.0715
     15 C         142.6415  141.4190  163.9405 C.ar    1  UNL1        0.0053
     16 C         144.9415  140.3084  164.4167 C.3     1  UNL1        0.4186
     17 F         145.7939  139.0783  164.5183 F       1  UNL1       -0.1659
     18 F         146.0542  141.0208  163.7065 F       1  UNL1       -0.1659
     19 F         143.8288  139.5960  165.1269 F       1  UNL1       -0.1659
     20 C         140.1503  141.3143  166.6914 C.3     1  UNL1        0.0787
     21 C         141.1711  141.4156  167.7858 C.ar    1  UNL1        0.0035
     22 C         142.4509  142.1620  167.5511 C.ar    1  UNL1       -0.0007
     23 C         143.4716  142.2633  168.6455 C.ar    1  UNL1        0.0204
     24 C         143.2127  141.6181  169.9746 C.ar    1  UNL1        0.0989
     25 N         141.9330  140.8716  170.2094 N.ar    1  UNL1       -0.2426
     26 C         140.9121  140.7703  169.1149 C.ar    1  UNL1        0.0950
     27 C         139.5907  139.9761  166.3091 C.ar    1  UNL1        0.0035
     28 C         140.3373  139.0971  165.3500 C.ar    1  UNL1       -0.0007
     29 C         139.7777  137.7590  164.9678 C.ar    1  UNL1        0.0204
     30 C         138.4715  137.2998  165.5448 C.ar    1  UNL1        0.0989
     31 N         137.7249  138.1787  166.5039 N.ar    1  UNL1       -0.2426
     32 C         138.2845  139.5169  166.8861 C.ar    1  UNL1        0.0950
@<TRIPOS>BOND
     1     2     1    1
     2     2     4    1
     3     4     5   ar
     4     5     6   ar
     5     6     7   ar
     6     7     8   ar
     7     8     9   ar
     8     9    10    1
     9    10    11   ar
    10    11    12   ar
    11    12    13   ar
    12    13    14   ar
    13    14    16    1
    14    16    17    1
    15    16    18    1
    16    16    19    1
    17    14    15   ar
    18     2    20    1
    19    20    21    1
    20    21    22   ar
    21    22    23   ar
    22    23    24   ar
    23    24    25   ar
    24    25    26   ar
    25    20    27    1
    26    27    28   ar
    27    28    29   ar
    28    29    30   ar
    29    30    31   ar
    30    31    32   ar
    31     9     4   ar
    32    15    10   ar
    33    26    21   ar
    34    32    27   ar
    35     1     3    1
@<TRIPOS>MOLECULE
*****
 32 35 0 0 0
SMALL
GASTEIGER

@<TRIPOS>ATOM
      1 O         139.7452  143.5400  167.1353 O.3     1  UNL1       -0.3793
      2 C         140.8583  142.6072  166.7598 C.3     1  UNL1        0.1422
      3 H         139.6500  143.5578  168.1005 H       1  UNL1        0.2108
      4 C         141.6203  141.8804  167.8281 C.ar    1  UNL1        0.0226
      5 C         142.5950  142.6244  168.6921 C.ar    1  UNL1        0.0012
      6 C         143.3570  141.8976  169.7603 C.ar    1  UNL1        0.0204
      7 C         143.1444  140.4268  169.9644 C.ar    1  UNL1        0.0988
      8 N         142.1697  139.6829  169.1004 N.ar    1  UNL1       -0.2441
      9 C         141.4077  140.4097  168.0323 C.ar    1  UNL1        0.0796
     10 C         140.4330  139.6657  167.1682 C.ar    1  UNL1        0.0174
     11 C         138.9841  139.6061  167.5520 C.ar    1  UNL1        0.0015
     12 C         138.0094  138.8622  166.6880 C.ar    1  UNL1       -0.0000
     13 C         138.4835  138.1779  165.4402 C.ar    1  UNL1        0.0039
     14 C         139.9324  138.2376  165.0563 C.ar    1  UNL1        0.0715
     15 C         140.9071  138.9816  165.9204 C.ar    1  UNL1        0.0053
     16 C         140.4065  137.5534  163.8086 C.3     1  UNL1        0.4186
     17 F         140.8806  136.8692  162.5608 F       1  UNL1       -0.1659
     18 F         138.9885  137.4370  163.3336 F       1  UNL1       -0.1659
     19 F         141.8245  137.6699  164.2835 F       1  UNL1       -0.1659
     20 C         141.2093  142.4012  165.3161 C.3     1  UNL1        0.0787
     21 C         140.1343  142.4355  164.2706 C.ar    1  UNL1        0.0035
     22 C         138.8223  141.7529  164.5212 C.ar    1  UNL1       -0.0007
     23 C         137.7472  141.7872  163.4757 C.ar    1  UNL1        0.0204
     24 C         137.9842  142.5040  162.1796 C.ar    1  UNL1        0.0989
     25 N         139.2961  143.1866  161.9289 N.ar    1  UNL1       -0.2426
     26 C         140.3712  143.1523  162.9745 C.ar    1  UNL1        0.0950
     27 C         142.6354  142.1609  164.9179 C.ar    1  UNL1        0.0035
     28 C         143.0530  140.8168  164.3993 C.ar    1  UNL1       -0.0007
     29 C         144.4791  140.5766  164.0012 C.ar    1  UNL1        0.0204
     30 C         145.4876  141.6804  164.1216 C.ar    1  UNL1        0.0989
     31 N         145.0700  143.0245  164.6402 N.ar    1  UNL1       -0.2426
     32 C         143.6439  143.2647  165.0384 C.ar    1  UNL1        0.0950
@<TRIPOS>BOND
     1     2     1    1
     2     2     4    1
     3     4     5   ar
     4     5     6   ar
     5     6     7   ar
     6     7     8   ar
     7     8     9   ar
     8     9    10    1
     9    10    11   ar
    10    11    12   ar
    11    12    13   ar
    12    13    14   ar
    13    14    16    1
    14    16    17    1
    15    16    18    1
    16    16    19    1
    17    14    15   ar
    18     2    20    1
    19    20    21    1
    20    21    22   ar
    21    22    23   ar
    22    23    24   ar
    23    24    25   ar
    24    25    26   ar
    25    20    27    1
    26    27    28   ar
    27    28    29   ar
    28    29    30   ar
    29    30    31   ar
    30    31    32   ar
    31     9     4   ar
    32    15    10   ar
    33    26    21   ar
    34    32    27   ar
    35     1     3    1
@<TRIPOS>MOLECULE
*****
 32 35 0 0 0
SMALL
GASTEIGER

@<TRIPOS>ATOM
      1 O         139.7838  143.5593  167.1072 O.3     1  UNL1       -0.3793
      2 C         140.8805  142.6018  166.7462 C.3     1  UNL1        0.1422
      3 H         139.6898  143.5944  168.0720 H       1  UNL1        0.2108
      4 C         141.6311  141.8796  167.8256 C.ar    1  UNL1        0.0226
      5 C         142.6046  142.6251  168.6897 C.ar    1  UNL1        0.0012
      6 C         143.3552  141.9030  169.7690 C.ar    1  UNL1        0.0204
      7 C         143.1323  140.4354  169.9844 C.ar    1  UNL1        0.0988
      8 N         142.1589  139.6899  169.1204 N.ar    1  UNL1       -0.2441
      9 C         141.4083  140.4120  168.0410 C.ar    1  UNL1        0.0796
     10 C         140.4347  139.6665  167.1769 C.ar    1  UNL1        0.0174
     11 C         138.9848  139.6102  167.5571 C.ar    1  UNL1        0.0015
     12 C         138.0113  138.8648  166.6931 C.ar    1  UNL1       -0.0000
     13 C         138.4877  138.1756  165.4488 C.ar    1  UNL1        0.0039
     14 C         139.9377  138.2318  165.0687 C.ar    1  UNL1        0.0715
     15 C         140.9112  138.9773  165.9327 C.ar    1  UNL1        0.0053
     16 C         140.4141  137.5426  163.8245 C.3     1  UNL1        0.4186
     17 F         140.8905  136.8535  162.5803 F       1  UNL1       -0.1659
     18 F         141.8160  137.5491  164.3578 F       1  UNL1       -0.1659
     19 F         139.0121  137.5362  163.2912 F       1  UNL1       -0.1659
     20 C         141.2266  142.3663  165.3058 C.3     1  UNL1        0.0787
     21 C         142.6519  142.1222  164.9072 C.ar    1  UNL1        0.0035
     22 C         143.0674  140.7746  164.3958 C.ar    1  UNL1       -0.0007
     23 C         144.4926  140.5305  163.9972 C.ar    1  UNL1        0.0204
     24 C         145.5025  141.6339  164.1098 C.ar    1  UNL1        0.0989
     25 N         145.0870  142.9815  164.6211 N.ar    1  UNL1       -0.2426
     26 C         143.6617  143.2257  165.0198 C.ar    1  UNL1        0.0950
     27 C         140.1473  142.3750  164.2640 C.ar    1  UNL1        0.0035
     28 C         138.8183  141.7439  164.5557 C.ar    1  UNL1       -0.0007
     29 C         137.7391  141.7526  163.5140 C.ar    1  UNL1        0.0204
     30 C         137.9890  142.3925  162.1805 C.ar    1  UNL1        0.0989
     31 N         139.3181  143.0236  161.8888 N.ar    1  UNL1       -0.2426
     32 C         140.3973  143.0149  162.9306 C.ar    1  UNL1        0.0950
@<TRIPOS>BOND
     1     2     1    1
     2     2     4    1
     3     4     5   ar
     4     5     6   ar
     5     6     7   ar
     6     7     8   ar
     7     8     9   ar
     8     9    10    1
     9    10    11   ar
    10    11    12   ar
    11    12    13   ar
    12    13    14   ar
    13    14    16    1
    14    16    17    1
    15    16    18    1
    16    16    19    1
    17    14    15   ar
    18     2    20    1
    19    20    21    1
    20    21    22   ar
    21    22    23   ar
    22    23    24   ar
    23    24    25   ar
    24    25    26   ar
    25    20    27    1
    26    27    28   ar
    27    28    29   ar
    28    29    30   ar
    29    30    31   ar
    30    31    32   ar
    31     9     4   ar
    32    15    10   ar
    33    26    21   ar
    34    32    27   ar
    35     1     3    1
@<TRIPOS>MOLECULE
*****
 32 35 0 0 0
SMALL
GASTEIGER

@<TRIPOS>ATOM
      1 O         143.3576  142.5100  167.0193 O.3     1  UNL1       -0.3793
      2 C         142.3957  142.6182  165.8735 C.3     1  UNL1        0.1422
      3 H         144.2663  142.5708  166.6855 H       1  UNL1        0.2108
      4 C         142.9110  142.7918  164.4754 C.ar    1  UNL1        0.0226
      5 C         143.4020  144.1335  164.0183 C.ar    1  UNL1        0.0012
      6 C         143.9173  144.3070  162.6204 C.ar    1  UNL1        0.0204
      7 C         143.9416  143.1390  161.6795 C.ar    1  UNL1        0.0988
      8 N         143.4507  141.7974  162.1367 N.ar    1  UNL1       -0.2441
      9 C         142.9354  141.6238  163.5346 C.ar    1  UNL1        0.0796
     10 C         142.4444  140.2822  163.9918 C.ar    1  UNL1        0.0174
     11 C         143.2122  139.5156  165.0276 C.ar    1  UNL1        0.0015
     12 C         142.7213  138.1740  165.4848 C.ar    1  UNL1       -0.0000
     13 C         141.4625  137.5989  164.9062 C.ar    1  UNL1        0.0039
     14 C         140.6947  138.3654  163.8704 C.ar    1  UNL1        0.0715
     15 C         141.1857  139.7071  163.4132 C.ar    1  UNL1        0.0053
     16 C         139.4360  137.7904  163.2918 C.3     1  UNL1        0.4186
     17 F         138.1772  137.2153  162.7133 F       1  UNL1       -0.1659
     18 F         138.9056  137.5589  164.6757 F       1  UNL1       -0.1659
     19 F         139.9663  138.0218  161.9080 F       1  UNL1       -0.1659
     20 C         140.9185  142.5528  166.1255 C.3     1  UNL1        0.0787
     21 C         140.4009  141.9533  167.3994 C.ar    1  UNL1        0.0035
     22 C         139.9416  140.5255  167.4240 C.ar    1  UNL1       -0.0007
     23 C         139.4239  139.9261  168.6979 C.ar    1  UNL1        0.0204
     24 C         139.3655  140.7544  169.9471 C.ar    1  UNL1        0.0989
     25 N         139.8248  142.1821  169.9224 N.ar    1  UNL1       -0.2426
     26 C         140.3425  142.7816  168.6486 C.ar    1  UNL1        0.0950
     27 C         139.9589  143.0868  165.1037 C.ar    1  UNL1        0.0035
     28 C         138.9809  142.1640  164.4390 C.ar    1  UNL1       -0.0007
     29 C         138.0213  142.6981  163.4172 C.ar    1  UNL1        0.0204
     30 C         138.0399  144.1548  163.0601 C.ar    1  UNL1        0.0989
     31 N         139.0179  145.0776  163.7248 N.ar    1  UNL1       -0.2426
     32 C         139.9775  144.5435  164.7466 C.ar    1  UNL1        0.0950
@<TRIPOS>BOND
     1     2     1    1
     2     2     4    1
     3     4     5   ar
     4     5     6   ar
     5     6     7   ar
     6     7     8   ar
     7     8     9   ar
     8     9    10    1
     9    10    11   ar
    10    11    12   ar
    11    12    13   ar
    12    13    14   ar
    13    14    16    1
    14    16    17    1
    15    16    18    1
    16    16    19    1
    17    14    15   ar
    18     2    20    1
    19    20    21    1
    20    21    22   ar
    21    22    23   ar
    22    23    24   ar
    23    24    25   ar
    24    25    26   ar
    25    20    27    1
    26    27    28   ar
    27    28    29   ar
    28    29    30   ar
    29    30    31   ar
    30    31    32   ar
    31     9     4   ar
    32    15    10   ar
    33    26    21   ar
    34    32    27   ar
    35     1     3    1
