@<TRIPOS>MOLECULE
*****
 36 40 0 0 0
SMALL
GASTEIGER

@<TRIPOS>ATOM
      1 C         142.9665  139.2946  164.2480 C.ar    1  UNL1        0.0878
      2 C         143.9878  138.8866  165.2681 C.ar    1  UNL1        0.1543
      3 F         145.3290  138.3810  164.8259 F       1  UNL1       -0.2028
      4 C         143.6679  138.9842  166.7303 C.ar    1  UNL1        0.0356
      5 C         142.3267  139.4898  167.1724 C.ar    1  UNL1        0.0580
      6 C         142.0068  139.5873  168.6347 C.ar    1  UNL1        0.1996
      7 O         143.0280  139.1793  169.6547 O.2     1  UNL1       -0.2864
      8 C         140.6656  140.0930  169.0769 C.ar    1  UNL1        0.0701
      9 C         139.6443  140.5010  168.0568 C.ar    1  UNL1        0.0801
     10 N         139.9642  140.4035  166.5946 N.ar    1  UNL1       -0.3270
     11 C         141.3054  139.8978  166.1524 C.ar    1  UNL1        0.0750
     12 C         141.6253  139.8003  164.6902 C.ar    1  UNL1        0.0890
     13 CL        140.6040  140.2083  163.6701 Cl      1  UNL1       -0.0794
     14 C         143.3516  138.4325  160.4832 C.3     1  UNL1        0.0929
     15 C         144.2058  139.6612  160.5880 C.3     1  UNL1        0.0427
     16 C         144.1655  140.1336  162.0111 C.3     1  UNL1        0.0927
     17 N         143.2864  139.1971  162.7858 N.pl3   1  UNL1       -0.3033
     18 C         142.7835  138.1457  161.8414 C.3     1  UNL1        0.1104
     19 C         142.2177  138.1732  158.1600 C.2     1  UNL1        0.2244
     20 O         141.5702  139.5161  158.3261 O.2     1  UNL1       -0.2750
     21 N         143.1083  137.6315  159.2386 N.am    1  UNL1       -0.3042
     22 H         143.5333  136.7501  159.1295 H       1  UNL1        0.1494
     23 C         141.9744  137.3721  156.9154 C.3     1  UNL1        0.1095
     24 C         143.0300  136.4346  156.4086 C.3     1  UNL1        0.1172
     25 C         141.3893  131.5720  155.1658 C.3     1  UNL1        0.0538
     26 C         142.0452  132.7180  155.8778 C.ar    1  UNL1        0.0783
     27 C         142.0180  134.1548  155.4479 C.ar    1  UNL1        0.0920
     28 N         142.7993  134.9530  156.4490 N.ar    1  UNL1       -0.3076
     29 C         143.3093  134.0095  157.4977 C.ar    1  UNL1        0.1782
     30 N         142.8433  132.6282  157.1446 N.ar    1  UNL1       -0.2283
     31 C         140.3456  140.1906  170.5391 C.2     1  UNL1        0.0774
     32 O         139.2654  139.3334  171.1294 O.co2   1  UNL1       -0.5444
     33 O         141.1059  141.1454  171.4112 O.co2   1  UNL1       -0.5444
     34 C         138.9429  140.8115  165.5746 C.3     1  UNL1        0.0857
     35 C         137.8797  140.4447  164.5822 C.3     1  UNL1        0.0245
     36 C         138.2373  141.8850  164.8003 C.3     1  UNL1        0.0245
@<TRIPOS>UNITY_ATOM_ATTR
32 1
charge -1
@<TRIPOS>BOND
     1    25    26    1
     2    26    27   ar
     3    27    28   ar
     4    28    24    1
     5    24    23    1
     6    23    19    1
     7    19    20    2
     8    19    21   am
     9    21    14    1
    10    14    15    1
    11    15    16    1
    12    16    17    1
    13    17     1    1
    14     1     2   ar
    15     2     3    1
    16     2     4   ar
    17     4     5   ar
    18     5     6   ar
    19     6     7    2
    20     6     8   ar
    21     8    31    1
    22    31    32   ar
    23    31    33   ar
    24     8     9   ar
    25     9    10   ar
    26    10    34    1
    27    34    35    1
    28    35    36    1
    29    10    11   ar
    30    11    12   ar
    31    12    13    1
    32    17    18    1
    33    28    29   ar
    34    29    30   ar
    35    30    26   ar
    36    18    14    1
    37    12     1   ar
    38    11     5   ar
    39    36    34    1
    40    21    22    1
@<TRIPOS>MOLECULE
*****
 36 40 0 0 0
SMALL
GASTEIGER

@<TRIPOS>ATOM
      1 C         139.8563  139.5947  162.8893 C.ar    1  UNL1        0.0878
      2 C         138.7000  138.8242  163.4544 C.ar    1  UNL1        0.1543
      3 F         137.7913  138.0572  162.5402 F       1  UNL1       -0.2028
      4 C         138.4526  138.8208  164.9338 C.ar    1  UNL1        0.0356
      5 C         139.3613  139.5878  165.8481 C.ar    1  UNL1        0.0580
      6 C         139.1137  139.5844  167.3276 C.ar    1  UNL1        0.1996
      7 O         137.9575  138.8139  167.8927 O.2     1  UNL1       -0.2864
      8 C         140.0225  140.3514  168.2418 C.ar    1  UNL1        0.0701
      9 C         141.1787  141.1219  167.6766 C.ar    1  UNL1        0.0801
     10 N         141.4262  141.1254  166.1972 N.ar    1  UNL1       -0.3270
     11 C         140.5175  140.3583  165.2829 C.ar    1  UNL1        0.0750
     12 C         140.7650  140.3618  163.8035 C.ar    1  UNL1        0.0890
     13 CL        141.9213  141.1323  163.2383 Cl      1  UNL1       -0.0794
     14 C         140.6986  138.8854  159.1673 C.3     1  UNL1        0.0929
     15 C         140.2709  140.3215  159.0991 C.3     1  UNL1        0.0427
     16 C         139.9033  140.7620  160.4850 C.3     1  UNL1        0.0927
     17 N         140.1038  139.5982  161.4098 N.pl3   1  UNL1       -0.3033
     18 C         140.5953  138.4384  160.5954 C.3     1  UNL1        0.1104
     19 C         142.6039  137.9909  157.6442 C.2     1  UNL1        0.2244
     20 O         143.6059  138.7792  158.4347 O.2     1  UNL1       -0.2750
     21 N         141.1503  138.0440  158.0105 N.am    1  UNL1       -0.3042
     22 H         140.4926  137.5267  157.4917 H       1  UNL1        0.1494
     23 C         143.0555  137.1496  156.4874 C.3     1  UNL1        0.1095
     24 C         142.4327  135.8060  156.2489 C.3     1  UNL1        0.1172
     25 C         144.8569  131.1342  155.8267 C.3     1  UNL1        0.0538
     26 C         144.3060  132.4096  156.3923 C.ar    1  UNL1        0.0783
     27 C         143.5510  133.4582  155.6305 C.ar    1  UNL1        0.0920
     28 N         143.1917  134.5570  156.5864 N.ar    1  UNL1       -0.3076
     29 C         143.7247  134.1874  157.9389 C.ar    1  UNL1        0.1782
     30 N         144.4133  132.8603  157.8190 N.ar    1  UNL1       -0.2283
     31 C         139.7750  140.3480  169.7212 C.2     1  UNL1        0.0774
     32 O         140.5181  139.3894  170.6037 O.co2   1  UNL1       -0.5444
     33 O         138.7843  141.3032  170.3182 O.co2   1  UNL1       -0.5444
     34 C         142.5824  141.8959  165.6320 C.3     1  UNL1        0.0857
     35 C         143.1629  143.1838  165.1276 C.3     1  UNL1        0.0245
     36 C         144.0046  141.9426  165.1575 C.3     1  UNL1        0.0245
@<TRIPOS>UNITY_ATOM_ATTR
32 1
charge -1
@<TRIPOS>BOND
     1    25    26    1
     2    26    27   ar
     3    27    28   ar
     4    28    24    1
     5    24    23    1
     6    23    19    1
     7    19    20    2
     8    19    21   am
     9    21    14    1
    10    14    15    1
    11    15    16    1
    12    16    17    1
    13    17     1    1
    14     1     2   ar
    15     2     3    1
    16     2     4   ar
    17     4     5   ar
    18     5     6   ar
    19     6     7    2
    20     6     8   ar
    21     8    31    1
    22    31    32   ar
    23    31    33   ar
    24     8     9   ar
    25     9    10   ar
    26    10    34    1
    27    34    35    1
    28    35    36    1
    29    10    11   ar
    30    11    12   ar
    31    12    13    1
    32    17    18    1
    33    28    29   ar
    34    29    30   ar
    35    30    26   ar
    36    18    14    1
    37    12     1   ar
    38    11     5   ar
    39    36    34    1
    40    21    22    1
@<TRIPOS>MOLECULE
*****
 36 40 0 0 0
SMALL
GASTEIGER

@<TRIPOS>ATOM
      1 C         140.6361  139.6136  164.3104 C.ar    1  UNL1        0.0878
      2 C         141.3117  138.6906  165.2807 C.ar    1  UNL1        0.1543
      3 F         141.6998  137.3062  164.8530 F       1  UNL1       -0.2028
      4 C         141.5992  139.1519  166.6787 C.ar    1  UNL1        0.0356
      5 C         141.2111  140.5363  167.1064 C.ar    1  UNL1        0.0580
      6 C         141.4986  140.9976  168.5045 C.ar    1  UNL1        0.1996
      7 O         142.1742  140.0746  169.4748 O.2     1  UNL1       -0.2864
      8 C         141.1105  142.3820  168.9321 C.ar    1  UNL1        0.0701
      9 C         140.4349  143.3050  167.9617 C.ar    1  UNL1        0.0801
     10 N         140.1474  142.8437  166.5637 N.ar    1  UNL1       -0.3270
     11 C         140.5355  141.4593  166.1360 C.ar    1  UNL1        0.0750
     12 C         140.2480  140.9980  164.7380 C.ar    1  UNL1        0.0890
     13 CL        139.5724  141.9210  163.7676 Cl      1  UNL1       -0.0794
     14 C         140.5374  138.7703  160.5229 C.3     1  UNL1        0.0929
     15 C         139.2750  138.1146  160.9989 C.3     1  UNL1        0.0427
     16 C         139.1583  138.3507  162.4756 C.3     1  UNL1        0.0927
     17 N         140.3486  139.1523  162.9123 N.pl3   1  UNL1       -0.3033
     18 C         141.2009  139.4116  161.7055 C.3     1  UNL1        0.1104
     19 C         142.2926  138.0258  158.7580 C.2     1  UNL1        0.2244
     20 O         143.0291  137.2569  159.8148 O.2     1  UNL1       -0.2750
     21 N         141.0468  138.7825  159.1121 N.am    1  UNL1       -0.3042
     22 H         140.5635  139.2871  158.4186 H       1  UNL1        0.1494
     23 C         142.8021  138.0380  157.3472 C.3     1  UNL1        0.1095
     24 C         142.0740  137.2753  156.2803 C.3     1  UNL1        0.1172
     25 C         141.2289  132.2251  154.9912 C.3     1  UNL1        0.0538
     26 C         141.7997  133.4597  155.6236 C.ar    1  UNL1        0.0783
     27 C         141.3425  134.8673  155.3795 C.ar    1  UNL1        0.0920
     28 N         142.1882  135.7810  156.2161 N.ar    1  UNL1       -0.3076
     29 C         143.1680  134.9381  156.9773 C.ar    1  UNL1        0.1782
     30 N         142.9279  133.5035  156.6111 N.ar    1  UNL1       -0.2283
     31 C         141.3980  142.8433  170.3301 C.2     1  UNL1        0.0774
     32 O         140.4427  142.5160  171.4393 O.co2   1  UNL1       -0.5444
     33 O         142.6408  143.6321  170.6190 O.co2   1  UNL1       -0.5444
     34 C         139.4718  143.7667  165.5934 C.3     1  UNL1        0.0857
     35 C         139.5559  144.7792  164.4899 C.3     1  UNL1        0.0245
     36 C         138.2176  144.3530  165.0163 C.3     1  UNL1        0.0245
@<TRIPOS>UNITY_ATOM_ATTR
32 1
charge -1
@<TRIPOS>BOND
     1    25    26    1
     2    26    27   ar
     3    27    28   ar
     4    28    24    1
     5    24    23    1
     6    23    19    1
     7    19    20    2
     8    19    21   am
     9    21    14    1
    10    14    15    1
    11    15    16    1
    12    16    17    1
    13    17     1    1
    14     1     2   ar
    15     2     3    1
    16     2     4   ar
    17     4     5   ar
    18     5     6   ar
    19     6     7    2
    20     6     8   ar
    21     8    31    1
    22    31    32   ar
    23    31    33   ar
    24     8     9   ar
    25     9    10   ar
    26    10    34    1
    27    34    35    1
    28    35    36    1
    29    10    11   ar
    30    11    12   ar
    31    12    13    1
    32    17    18    1
    33    28    29   ar
    34    29    30   ar
    35    30    26   ar
    36    18    14    1
    37    12     1   ar
    38    11     5   ar
    39    36    34    1
    40    21    22    1
@<TRIPOS>MOLECULE
*****
 36 40 0 0 0
SMALL
GASTEIGER

@<TRIPOS>ATOM
      1 C         142.7916  140.9473  164.5969 C.ar    1  UNL1        0.0878
      2 C         143.7372  141.8296  165.3567 C.ar    1  UNL1        0.1543
      3 F         145.0088  142.2965  164.7126 F       1  UNL1       -0.2028
      4 C         143.4111  142.2449  166.7606 C.ar    1  UNL1        0.0356
      5 C         142.1394  141.7780  167.4047 C.ar    1  UNL1        0.0580
      6 C         141.8133  142.1934  168.8088 C.ar    1  UNL1        0.1996
      7 O         142.7589  143.0757  169.5686 O.2     1  UNL1       -0.2864
      8 C         140.5417  141.7265  169.4528 C.ar    1  UNL1        0.0701
      9 C         139.5961  140.8442  168.6929 C.ar    1  UNL1        0.0801
     10 N         139.9222  140.4288  167.2890 N.ar    1  UNL1       -0.3270
     11 C         141.1938  140.8957  166.6449 C.ar    1  UNL1        0.0750
     12 C         141.5199  140.4804  165.2409 C.ar    1  UNL1        0.0890
     13 CL        140.5743  139.5980  164.4810 Cl      1  UNL1       -0.0794
     14 C         143.1770  140.4378  160.7683 C.3     1  UNL1        0.0929
     15 C         144.0618  139.3476  161.2963 C.3     1  UNL1        0.0427
     16 C         144.0251  139.4058  162.7948 C.3     1  UNL1        0.0927
     17 N         143.1177  140.5319  163.1928 N.pl3   1  UNL1       -0.3033
     18 C         142.5935  141.1696  161.9404 C.3     1  UNL1        0.1104
     19 C         141.8844  139.9665  158.5644 C.2     1  UNL1        0.2244
     20 O         141.1045  138.8858  159.2529 O.2     1  UNL1       -0.2750
     21 N         142.9206  140.7425  159.3221 N.am    1  UNL1       -0.3042
     22 H         143.4325  141.4517  158.8703 H       1  UNL1        0.1494
     23 C         141.6281  140.2712  157.1182 C.3     1  UNL1        0.1095
     24 C         141.4294  139.1518  156.1397 C.3     1  UNL1        0.1172
     25 C         143.6385  134.4019  156.8024 C.3     1  UNL1        0.0538
     26 C         143.4204  135.8302  156.3988 C.ar    1  UNL1        0.0783
     27 C         142.1923  136.6463  156.6736 C.ar    1  UNL1        0.0920
     28 N         142.4050  138.0134  156.0942 N.ar    1  UNL1       -0.3076
     29 C         143.7647  138.0421  155.4613 C.ar    1  UNL1        0.1782
     30 N         144.3922  136.6929  155.6496 N.ar    1  UNL1       -0.2283
     31 C         140.2156  142.1418  170.8568 C.2     1  UNL1        0.0774
     32 O         140.7131  141.3280  172.0144 O.co2   1  UNL1       -0.5444
     33 O         139.3919  143.3711  171.1031 O.co2   1  UNL1       -0.5444
     34 C         138.9766  139.5465  166.5291 C.3     1  UNL1        0.0857
     35 C         138.2914  138.2238  166.3533 C.3     1  UNL1        0.0245
     36 C         138.0240  139.3410  165.3889 C.3     1  UNL1        0.0245
@<TRIPOS>UNITY_ATOM_ATTR
32 1
charge -1
@<TRIPOS>BOND
     1    25    26    1
     2    26    27   ar
     3    27    28   ar
     4    28    24    1
     5    24    23    1
     6    23    19    1
     7    19    20    2
     8    19    21   am
     9    21    14    1
    10    14    15    1
    11    15    16    1
    12    16    17    1
    13    17     1    1
    14     1     2   ar
    15     2     3    1
    16     2     4   ar
    17     4     5   ar
    18     5     6   ar
    19     6     7    2
    20     6     8   ar
    21     8    31    1
    22    31    32   ar
    23    31    33   ar
    24     8     9   ar
    25     9    10   ar
    26    10    34    1
    27    34    35    1
    28    35    36    1
    29    10    11   ar
    30    11    12   ar
    31    12    13    1
    32    17    18    1
    33    28    29   ar
    34    29    30   ar
    35    30    26   ar
    36    18    14    1
    37    12     1   ar
    38    11     5   ar
    39    36    34    1
    40    21    22    1
@<TRIPOS>MOLECULE
*****
 36 40 0 0 0
SMALL
GASTEIGER

@<TRIPOS>ATOM
      1 C         142.7373  141.5765  164.1557 C.ar    1  UNL1        0.0878
      2 C         143.7744  142.3401  164.9247 C.ar    1  UNL1        0.1543
      3 F         144.9683  142.9067  164.2150 F       1  UNL1       -0.2028
      4 C         143.6176  142.5371  166.4034 C.ar    1  UNL1        0.0356
      5 C         142.4237  141.9705  167.1131 C.ar    1  UNL1        0.0580
      6 C         142.2669  142.1676  168.5919 C.ar    1  UNL1        0.1996
      7 O         143.3039  142.9312  169.3609 O.2     1  UNL1       -0.2864
      8 C         141.0730  141.6010  169.3015 C.ar    1  UNL1        0.0701
      9 C         140.0359  140.8374  168.5325 C.ar    1  UNL1        0.0801
     10 N         140.1927  140.6404  167.0538 N.ar    1  UNL1       -0.3270
     11 C         141.3866  141.2070  166.3441 C.ar    1  UNL1        0.0750
     12 C         141.5434  141.0099  164.8654 C.ar    1  UNL1        0.0890
     13 CL        140.5063  140.2463  164.0963 Cl      1  UNL1       -0.0794
     14 C         143.3372  140.3633  160.5179 C.3     1  UNL1        0.0929
     15 C         142.9335  141.7891  160.2851 C.3     1  UNL1        0.0427
     16 C         142.6597  142.4171  161.6195 C.3     1  UNL1        0.0927
     17 N         142.8941  141.3795  162.6770 N.pl3   1  UNL1       -0.3033
     18 C         143.3129  140.1101  161.9961 C.3     1  UNL1        0.1104
     19 C         142.6241  138.6868  158.6656 C.2     1  UNL1        0.2244
     20 O         141.1827  139.0054  158.9322 O.2     1  UNL1       -0.2750
     21 N         143.7014  139.3658  159.4584 N.am    1  UNL1       -0.3042
     22 H         144.6474  139.1567  159.2835 H       1  UNL1        0.1494
     23 C         142.9883  137.6893  157.6061 C.3     1  UNL1        0.1095
     24 C         141.9318  136.8036  157.0150 C.3     1  UNL1        0.1172
     25 C         144.4916  132.2853  156.0595 C.3     1  UNL1        0.0538
     26 C         143.4838  133.3948  155.9975 C.ar    1  UNL1        0.0783
     27 C         143.4968  134.6450  156.8261 C.ar    1  UNL1        0.0920
     28 N         142.3073  135.4715  156.4367 N.ar    1  UNL1       -0.3076
     29 C         141.5591  134.7321  155.3673 C.ar    1  UNL1        0.1782
     30 N         142.2863  133.4486  155.0959 N.ar    1  UNL1       -0.2283
     31 C         140.9162  141.7980  170.7802 C.2     1  UNL1        0.0774
     32 O         139.8856  142.7536  171.3044 O.co2   1  UNL1       -0.5444
     33 O         141.7900  141.0394  171.7348 O.co2   1  UNL1       -0.5444
     34 C         139.1557  139.8768  166.2848 C.3     1  UNL1        0.0857
     35 C         138.5027  138.5756  165.9236 C.3     1  UNL1        0.0245
     36 C         138.0124  139.8554  165.3141 C.3     1  UNL1        0.0245
@<TRIPOS>UNITY_ATOM_ATTR
32 1
charge -1
@<TRIPOS>BOND
     1    25    26    1
     2    26    27   ar
     3    27    28   ar
     4    28    24    1
     5    24    23    1
     6    23    19    1
     7    19    20    2
     8    19    21   am
     9    21    14    1
    10    14    15    1
    11    15    16    1
    12    16    17    1
    13    17     1    1
    14     1     2   ar
    15     2     3    1
    16     2     4   ar
    17     4     5   ar
    18     5     6   ar
    19     6     7    2
    20     6     8   ar
    21     8    31    1
    22    31    32   ar
    23    31    33   ar
    24     8     9   ar
    25     9    10   ar
    26    10    34    1
    27    34    35    1
    28    35    36    1
    29    10    11   ar
    30    11    12   ar
    31    12    13    1
    32    17    18    1
    33    28    29   ar
    34    29    30   ar
    35    30    26   ar
    36    18    14    1
    37    12     1   ar
    38    11     5   ar
    39    36    34    1
    40    21    22    1
@<TRIPOS>MOLECULE
*****
 36 40 0 0 0
SMALL
GASTEIGER

@<TRIPOS>ATOM
      1 C         142.8905  141.1998  164.6248 C.ar    1  UNL1        0.0878
      2 C         143.8174  142.0691  165.4219 C.ar    1  UNL1        0.1543
      3 F         145.0905  142.5698  164.8067 F       1  UNL1       -0.2028
      4 C         143.4711  142.4376  166.8340 C.ar    1  UNL1        0.0356
      5 C         142.1980  141.9368  167.4492 C.ar    1  UNL1        0.0580
      6 C         141.8517  142.3053  168.8614 C.ar    1  UNL1        0.1996
      7 O         142.7786  143.1746  169.6584 O.2     1  UNL1       -0.2864
      8 C         140.5786  141.8046  169.4765 C.ar    1  UNL1        0.0701
      9 C         139.6517  140.9353  168.6794 C.ar    1  UNL1        0.0801
     10 N         139.9980  140.5668  167.2672 N.ar    1  UNL1       -0.3270
     11 C         141.2711  141.0676  166.6521 C.ar    1  UNL1        0.0750
     12 C         141.6174  140.6991  165.2399 C.ar    1  UNL1        0.0890
     13 CL        140.6905  139.8298  164.4428 Cl      1  UNL1       -0.0794
     14 C         143.3649  140.8440  160.7889 C.3     1  UNL1        0.0929
     15 C         144.1742  139.6846  161.2899 C.3     1  UNL1        0.0427
     16 C         144.0950  139.6768  162.7878 C.3     1  UNL1        0.0927
     17 N         143.2368  140.8313  163.2126 N.pl3   1  UNL1       -0.3033
     18 C         142.7855  141.5527  161.9772 C.3     1  UNL1        0.1104
     19 C         142.0197  140.6589  158.5739 C.2     1  UNL1        0.2244
     20 O         141.0657  139.7071  159.2328 O.2     1  UNL1       -0.2750
     21 N         143.1693  141.2273  159.3520 N.am    1  UNL1       -0.3042
     22 H         143.7954  141.8520  158.9196 H       1  UNL1        0.1494
     23 C         141.8242  141.0422  157.1370 C.3     1  UNL1        0.1095
     24 C         141.1856  142.3547  156.7911 C.3     1  UNL1        0.1172
     25 C         140.2459  145.6575  160.8023 C.3     1  UNL1        0.0538
     26 C         140.8558  145.0298  159.5840 C.ar    1  UNL1        0.0783
     27 C         140.3946  143.7673  158.9180 C.ar    1  UNL1        0.0920
     28 N         141.2877  143.5117  157.7403 N.ar    1  UNL1       -0.3076
     29 C         142.3008  144.6162  157.6784 C.ar    1  UNL1        0.1782
     30 N         142.0338  145.5544  158.8179 N.ar    1  UNL1       -0.2283
     31 C         140.2323  142.1731  170.8887 C.2     1  UNL1        0.0774
     32 O         140.8276  141.4054  172.0316 O.co2   1  UNL1       -0.5444
     33 O         139.2907  143.3093  171.1580 O.co2   1  UNL1       -0.5444
     34 C         139.0711  139.6976  166.4702 C.3     1  UNL1        0.0857
     35 C         138.5492  138.3364  166.1169 C.3     1  UNL1        0.0245
     36 C         137.9876  139.5531  165.4430 C.3     1  UNL1        0.0245
@<TRIPOS>UNITY_ATOM_ATTR
32 1
charge -1
@<TRIPOS>BOND
     1    25    26    1
     2    26    27   ar
     3    27    28   ar
     4    28    24    1
     5    24    23    1
     6    23    19    1
     7    19    20    2
     8    19    21   am
     9    21    14    1
    10    14    15    1
    11    15    16    1
    12    16    17    1
    13    17     1    1
    14     1     2   ar
    15     2     3    1
    16     2     4   ar
    17     4     5   ar
    18     5     6   ar
    19     6     7    2
    20     6     8   ar
    21     8    31    1
    22    31    32   ar
    23    31    33   ar
    24     8     9   ar
    25     9    10   ar
    26    10    34    1
    27    34    35    1
    28    35    36    1
    29    10    11   ar
    30    11    12   ar
    31    12    13    1
    32    17    18    1
    33    28    29   ar
    34    29    30   ar
    35    30    26   ar
    36    18    14    1
    37    12     1   ar
    38    11     5   ar
    39    36    34    1
    40    21    22    1
@<TRIPOS>MOLECULE
*****
 36 40 0 0 0
SMALL
GASTEIGER

@<TRIPOS>ATOM
      1 C         142.9317  141.3702  164.4383 C.ar    1  UNL1        0.0878
      2 C         143.9354  142.1716  165.2131 C.ar    1  UNL1        0.1543
      3 F         145.1977  142.6363  164.5492 F       1  UNL1       -0.2028
      4 C         143.6769  142.5082  166.6517 C.ar    1  UNL1        0.0356
      5 C         142.4146  142.0435  167.3156 C.ar    1  UNL1        0.0580
      6 C         142.1561  142.3801  168.7543 C.ar    1  UNL1        0.1996
      7 O         143.1598  143.1814  169.5291 O.2     1  UNL1       -0.2864
      8 C         140.8938  141.9154  169.4182 C.ar    1  UNL1        0.0701
      9 C         139.8900  141.1140  168.6433 C.ar    1  UNL1        0.0801
     10 N         140.1486  140.7774  167.2046 N.ar    1  UNL1       -0.3270
     11 C         141.4109  141.2421  166.5408 C.ar    1  UNL1        0.0750
     12 C         141.6694  140.9055  165.1021 C.ar    1  UNL1        0.0890
     13 CL        140.6657  140.1041  164.3272 Cl      1  UNL1       -0.0794
     14 C         143.1725  141.1029  160.5735 C.3     1  UNL1        0.0929
     15 C         144.0035  139.9283  160.9977 C.3     1  UNL1        0.0427
     16 C         144.0145  139.8855  162.4970 C.3     1  UNL1        0.0927
     17 N         143.1903  141.0336  162.9995 N.pl3   1  UNL1       -0.3033
     18 C         142.6699  141.7860  161.8107 C.3     1  UNL1        0.1104
     19 C         143.9145  142.3101  158.3958 C.2     1  UNL1        0.2244
     20 O         145.2150  142.6812  159.0447 O.2     1  UNL1       -0.2750
     21 N         142.8932  141.5209  159.1603 N.am    1  UNL1       -0.3042
     22 H         142.0397  141.2774  158.7345 H       1  UNL1        0.1494
     23 C         143.6351  142.7281  156.9826 C.3     1  UNL1        0.1095
     24 C         144.0104  141.8250  155.8452 C.3     1  UNL1        0.1172
     25 C         149.2721  141.7549  155.4088 C.3     1  UNL1        0.0538
     26 C         147.8135  141.8457  155.0703 C.ar    1  UNL1        0.0783
     27 C         146.6744  141.7251  156.0388 C.ar    1  UNL1        0.0920
     28 N         145.3950  141.8779  155.2709 N.ar    1  UNL1       -0.3076
     29 C         145.7434  142.0929  153.8279 C.ar    1  UNL1        0.1782
     30 N         147.2380  142.0730  153.7039 N.ar    1  UNL1       -0.2283
     31 C         140.6352  142.2520  170.8568 C.2     1  UNL1        0.0774
     32 O         139.4124  143.0336  171.2362 O.co2   1  UNL1       -0.5444
     33 O         141.5995  141.8070  171.9163 O.co2   1  UNL1       -0.5444
     34 C         139.1449  139.9761  166.4298 C.3     1  UNL1        0.0857
     35 C         138.0265  139.9097  165.4324 C.3     1  UNL1        0.0245
     36 C         138.5247  138.6545  166.0852 C.3     1  UNL1        0.0245
@<TRIPOS>UNITY_ATOM_ATTR
32 1
charge -1
@<TRIPOS>BOND
     1    25    26    1
     2    26    27   ar
     3    27    28   ar
     4    28    24    1
     5    24    23    1
     6    23    19    1
     7    19    20    2
     8    19    21   am
     9    21    14    1
    10    14    15    1
    11    15    16    1
    12    16    17    1
    13    17     1    1
    14     1     2   ar
    15     2     3    1
    16     2     4   ar
    17     4     5   ar
    18     5     6   ar
    19     6     7    2
    20     6     8   ar
    21     8    31    1
    22    31    32   ar
    23    31    33   ar
    24     8     9   ar
    25     9    10   ar
    26    10    34    1
    27    34    35    1
    28    35    36    1
    29    10    11   ar
    30    11    12   ar
    31    12    13    1
    32    17    18    1
    33    28    29   ar
    34    29    30   ar
    35    30    26   ar
    36    18    14    1
    37    12     1   ar
    38    11     5   ar
    39    36    34    1
    40    21    22    1
@<TRIPOS>MOLECULE
*****
 36 40 0 0 0
SMALL
GASTEIGER

@<TRIPOS>ATOM
      1 C         142.8550  141.5042  164.3140 C.ar    1  UNL1        0.0878
      2 C         143.8601  142.2816  165.1110 C.ar    1  UNL1        0.1543
      3 F         145.0896  142.8231  164.4440 F       1  UNL1       -0.2028
      4 C         143.6355  142.5177  166.5752 C.ar    1  UNL1        0.0356
      5 C         142.4059  141.9763  167.2423 C.ar    1  UNL1        0.0580
      6 C         142.1814  142.2124  168.7065 C.ar    1  UNL1        0.1996
      7 O         143.1865  142.9899  169.5036 O.2     1  UNL1       -0.2864
      8 C         140.9519  141.6710  169.3736 C.ar    1  UNL1        0.0701
      9 C         139.9468  140.8935  168.5765 C.ar    1  UNL1        0.0801
     10 N         140.1713  140.6574  167.1123 N.ar    1  UNL1       -0.3270
     11 C         141.4009  141.1988  166.4452 C.ar    1  UNL1        0.0750
     12 C         141.6254  140.9628  164.9811 C.ar    1  UNL1        0.0890
     13 CL        140.6204  140.1852  164.1839 Cl      1  UNL1       -0.0794
     14 C         143.4731  140.1670  160.7229 C.3     1  UNL1        0.0929
     15 C         143.3769  141.6424  160.4702 C.3     1  UNL1        0.0427
     16 C         143.1337  142.3229  161.7847 C.3     1  UNL1        0.0927
     17 N         143.0795  141.2681  162.8497 N.pl3   1  UNL1       -0.3033
     18 C         143.2893  139.9356  162.1935 C.3     1  UNL1        0.1104
     19 C         142.5570  138.3241  159.1371 C.2     1  UNL1        0.2244
     20 O         141.1646  138.5979  159.6233 O.2     1  UNL1       -0.2750
     21 N         143.7112  139.1087  159.6869 N.am    1  UNL1       -0.3042
     22 H         144.6251  138.9291  159.3678 H       1  UNL1        0.1494
     23 C         142.7952  137.2659  158.1011 C.3     1  UNL1        0.1095
     24 C         142.8034  137.6294  156.6458 C.3     1  UNL1        0.1172
     25 C         137.9827  137.5408  154.4931 C.3     1  UNL1        0.0538
     26 C         139.4202  137.2277  154.7865 C.ar    1  UNL1        0.0783
     27 C         140.2714  137.8891  155.8295 C.ar    1  UNL1        0.0920
     28 N         141.6359  137.2684  155.7759 N.ar    1  UNL1       -0.3076
     29 C         141.6279  136.2235  154.6998 C.ar    1  UNL1        0.1782
     30 N         140.2586  136.1983  154.0883 N.ar    1  UNL1       -0.2283
     31 C         140.7273  141.9070  170.8378 C.2     1  UNL1        0.0774
     32 O         141.5377  141.1551  171.8516 O.co2   1  UNL1       -0.5444
     33 O         139.6924  142.8951  171.2881 O.co2   1  UNL1       -0.5444
     34 C         139.1663  139.8799  166.3152 C.3     1  UNL1        0.0857
     35 C         138.5341  138.5712  165.9443 C.3     1  UNL1        0.0245
     36 C         138.0576  139.8420  165.3056 C.3     1  UNL1        0.0245
@<TRIPOS>UNITY_ATOM_ATTR
32 1
charge -1
@<TRIPOS>BOND
     1    25    26    1
     2    26    27   ar
     3    27    28   ar
     4    28    24    1
     5    24    23    1
     6    23    19    1
     7    19    20    2
     8    19    21   am
     9    21    14    1
    10    14    15    1
    11    15    16    1
    12    16    17    1
    13    17     1    1
    14     1     2   ar
    15     2     3    1
    16     2     4   ar
    17     4     5   ar
    18     5     6   ar
    19     6     7    2
    20     6     8   ar
    21     8    31    1
    22    31    32   ar
    23    31    33   ar
    24     8     9   ar
    25     9    10   ar
    26    10    34    1
    27    34    35    1
    28    35    36    1
    29    10    11   ar
    30    11    12   ar
    31    12    13    1
    32    17    18    1
    33    28    29   ar
    34    29    30   ar
    35    30    26   ar
    36    18    14    1
    37    12     1   ar
    38    11     5   ar
    39    36    34    1
    40    21    22    1
@<TRIPOS>MOLECULE
*****
 36 40 0 0 0
SMALL
GASTEIGER

@<TRIPOS>ATOM
      1 C         139.6578  139.3987  164.5182 C.ar    1  UNL1        0.0878
      2 C         138.8801  138.6345  165.5483 C.ar    1  UNL1        0.1543
      3 F         138.0733  137.4367  165.1427 F       1  UNL1       -0.2028
      4 C         138.9091  139.0681  166.9839 C.ar    1  UNL1        0.0356
      5 C         139.7158  140.2659  167.3894 C.ar    1  UNL1        0.0580
      6 C         139.7448  140.6995  168.8252 C.ar    1  UNL1        0.1996
      7 O         138.9671  139.9353  169.8553 O.2     1  UNL1       -0.2864
      8 C         140.5515  141.8973  169.2307 C.ar    1  UNL1        0.0701
      9 C         141.3292  142.6615  168.2005 C.ar    1  UNL1        0.0801
     10 N         141.3002  142.2279  166.7649 N.ar    1  UNL1       -0.3270
     11 C         140.4935  141.0301  166.3594 C.ar    1  UNL1        0.0750
     12 C         140.4645  140.5965  164.9237 C.ar    1  UNL1        0.0890
     13 CL        141.2422  141.3607  163.8935 Cl      1  UNL1       -0.0794
     14 C         140.2119  138.6872  160.7429 C.3     1  UNL1        0.0929
     15 C         138.9565  137.9087  161.0034 C.3     1  UNL1        0.0427
     16 C         138.5961  138.0805  162.4493 C.3     1  UNL1        0.0927
     17 N         139.6288  138.9651  163.0824 N.pl3   1  UNL1       -0.3033
     18 C         140.6274  139.3401  162.0279 C.3     1  UNL1        0.1104
     19 C         142.2447  138.1054  159.2331 C.2     1  UNL1        0.2244
     20 O         142.8484  137.3100  160.3525 O.2     1  UNL1       -0.2750
     21 N         140.9264  138.7940  159.4284 N.am    1  UNL1       -0.3042
     22 H         140.5302  139.3161  158.6937 H       1  UNL1        0.1494
     23 C         142.9592  138.2123  157.9185 C.3     1  UNL1        0.1095
     24 C         142.3811  137.5636  156.6958 C.3     1  UNL1        0.1172
     25 C         141.2938  132.6521  155.0907 C.3     1  UNL1        0.0538
     26 C         141.9038  133.8127  155.8196 C.ar    1  UNL1        0.0783
     27 C         141.5522  135.2581  155.6270 C.ar    1  UNL1        0.0920
     28 N         142.4035  136.0702  156.5574 N.ar    1  UNL1       -0.3076
     29 C         143.2813  135.1266  157.3250 C.ar    1  UNL1        0.1782
     30 N         142.9725  133.7315  156.8691 N.ar    1  UNL1       -0.2283
     31 C         140.5805  142.3309  170.6664 C.2     1  UNL1        0.0774
     32 O         141.7595  141.9903  171.5290 O.co2   1  UNL1       -0.5444
     33 O         139.4306  143.1050  171.2394 O.co2   1  UNL1       -0.5444
     34 C         142.0779  142.9921  165.7348 C.3     1  UNL1        0.0857
     35 C         142.1245  144.0072  164.6315 C.3     1  UNL1        0.0245
     36 C         143.3783  143.3007  165.0540 C.3     1  UNL1        0.0245
@<TRIPOS>UNITY_ATOM_ATTR
32 1
charge -1
@<TRIPOS>BOND
     1    25    26    1
     2    26    27   ar
     3    27    28   ar
     4    28    24    1
     5    24    23    1
     6    23    19    1
     7    19    20    2
     8    19    21   am
     9    21    14    1
    10    14    15    1
    11    15    16    1
    12    16    17    1
    13    17     1    1
    14     1     2   ar
    15     2     3    1
    16     2     4   ar
    17     4     5   ar
    18     5     6   ar
    19     6     7    2
    20     6     8   ar
    21     8    31    1
    22    31    32   ar
    23    31    33   ar
    24     8     9   ar
    25     9    10   ar
    26    10    34    1
    27    34    35    1
    28    35    36    1
    29    10    11   ar
    30    11    12   ar
    31    12    13    1
    32    17    18    1
    33    28    29   ar
    34    29    30   ar
    35    30    26   ar
    36    18    14    1
    37    12     1   ar
    38    11     5   ar
    39    36    34    1
    40    21    22    1
