@<TRIPOS>MOLECULE
*****
 33 36 0 0 0
SMALL
GASTEIGER

@<TRIPOS>ATOM
      1 C         141.0653  137.5656  157.4083 C.2     1  UNL1        0.2532
      2 O         142.2667  138.0658  158.1544 O.2     1  UNL1       -0.2695
      3 N         139.6976  138.0656  157.7676 N.am    1  UNL1       -0.2987
      4 H         138.9091  137.7373  157.2779 H       1  UNL1        0.1498
      5 C         142.2995  132.9375  153.0884 C.ar    1  UNL1        0.2398
      6 N         141.2535  133.6516  152.2849 N.ar    1  UNL1       -0.1101
      7 N         140.5863  134.8747  152.8405 N.ar    1  UNL1       -0.1384
      8 C         140.9651  135.3837  154.1997 C.ar    1  UNL1        0.1336
      9 S         140.4835  136.5555  155.0028 S.2     1  UNL1       -0.0604
     10 C         141.2319  136.5655  156.3027 C.ar    1  UNL1        0.0971
     11 C         142.1760  135.4000  156.3030 C.ar    1  UNL1        0.0539
     12 N         143.1195  135.0298  157.4088 N.pl3   1  UNL1       -0.3564
     13 C         142.0111  134.6696  155.0032 C.ar    1  UNL1        0.0397
     14 C         142.6783  133.4464  154.4476 C.ar    1  UNL1        0.0360
     15 C         143.7244  132.7323  155.2512 C.3     1  UNL1        0.0361
     16 H         143.1553  135.5743  158.2282 H       1  UNL1        0.1424
     17 H         143.7028  134.2423  157.3153 H       1  UNL1        0.1424
     18 C         142.3270  130.3683  152.7027 C.3     1  UNL1        0.2543
     19 O         142.9668  131.7143  152.5328 O.3     1  UNL1       -0.4554
     20 C         139.5311  139.0656  158.8731 C.3     1  UNL1        0.1115
     21 C         139.6662  140.5552  158.9851 C.3     1  UNL1        0.1149
     22 N         139.2956  140.4798  160.4365 N.pl3   1  UNL1       -0.2747
     23 C         139.1605  138.9901  160.3247 C.3     1  UNL1        0.1149
     24 C         139.1291  141.4799  161.5421 C.ar    1  UNL1        0.2203
     25 N         137.8295  142.2117  161.7020 N.ar    1  UNL1       -0.2121
     26 C         137.6630  143.2117  162.8075 C.ar    1  UNL1        0.1072
     27 C         138.7960  143.4799  163.7532 C.ar    1  UNL1        0.1097
     28 C         140.0956  142.7481  163.5934 C.ar    1  UNL1        0.1072
     29 N         140.2621  141.7480  162.4878 N.ar    1  UNL1       -0.2121
     30 C         138.6295  144.4799  164.8587 C.3     1  UNL1        0.4215
     31 F         138.4630  145.4799  165.9643 F       1  UNL1       -0.1657
     32 F         140.0504  144.9228  164.6722 F       1  UNL1       -0.1657
     33 F         137.2086  144.0371  165.0453 F       1  UNL1       -0.1657
@<TRIPOS>BOND
     1    18    19    1
     2    19     5    1
     3     5     6   ar
     4     6     7   ar
     5     7     8   ar
     6     8     9   ar
     7     9    10   ar
     8    10     1    1
     9     1     2    2
    10     1     3   am
    11     3    20    1
    12    20    21    1
    13    21    22    1
    14    22    24    1
    15    24    25   ar
    16    25    26   ar
    17    26    27   ar
    18    27    30    1
    19    30    31    1
    20    30    32    1
    21    30    33    1
    22    27    28   ar
    23    28    29   ar
    24    22    23    1
    25    10    11   ar
    26    11    12    1
    27    11    13   ar
    28    13    14   ar
    29    14    15    1
    30    14     5   ar
    31    13     8   ar
    32    23    20    1
    33    29    24   ar
    34     3     4    1
    35    12    16    1
    36    12    17    1
@<TRIPOS>MOLECULE
*****
 33 36 0 0 0
SMALL
GASTEIGER

@<TRIPOS>ATOM
      1 C         142.9648  136.8608  157.4801 C.2     1  UNL1        0.2532
      2 O         143.5823  138.0873  156.8763 O.2     1  UNL1       -0.2695
      3 N         142.5836  136.8497  158.9308 N.am    1  UNL1       -0.2987
      4 H         142.1783  136.0447  159.3271 H       1  UNL1        0.1498
      5 C         142.2439  131.2378  154.4034 C.ar    1  UNL1        0.2398
      6 N         141.6675  132.1033  153.3223 N.ar    1  UNL1       -0.1101
      7 N         141.5839  133.5885  153.5153 N.ar    1  UNL1       -0.1384
      8 C         142.0767  134.2082  154.7892 C.ar    1  UNL1        0.1336
      9 S         142.1233  135.6314  155.2607 S.2     1  UNL1       -0.0604
     10 C         142.7285  135.6455  156.6331 C.ar    1  UNL1        0.0971
     11 C         143.0559  134.2310  157.0099 C.ar    1  UNL1        0.0539
     12 N         143.6771  133.7834  158.2998 N.pl3   1  UNL1       -0.3564
     13 C         142.6531  133.3427  155.8703 C.ar    1  UNL1        0.0397
     14 C         142.7366  131.8575  155.6774 C.ar    1  UNL1        0.0360
     15 C         143.3130  130.9920  156.7585 C.3     1  UNL1        0.0361
     16 H         143.9074  134.4455  158.9911 H       1  UNL1        0.1424
     17 H         143.8544  132.8275  158.4551 H       1  UNL1        0.1424
     18 C         141.1073  128.9015  154.4027 C.3     1  UNL1        0.2543
     19 O         142.3274  129.7526  154.2105 O.3     1  UNL1       -0.4554
     20 C         142.8199  138.0650  159.7776 C.3     1  UNL1        0.1115
     21 C         142.1602  139.4048  159.9177 C.3     1  UNL1        0.1149
     22 N         143.1541  139.7836  160.9753 N.pl3   1  UNL1       -0.2747
     23 C         143.8138  138.4438  160.8353 C.3     1  UNL1        0.1149
     24 C         143.3904  140.9989  161.8222 C.ar    1  UNL1        0.2203
     25 N         142.7189  141.1246  163.1576 N.ar    1  UNL1       -0.2121
     26 C         142.9552  142.3398  164.0046 C.ar    1  UNL1        0.1072
     27 C         143.8630  143.4295  163.5161 C.ar    1  UNL1        0.1097
     28 C         144.5345  143.3039  162.1807 C.ar    1  UNL1        0.1072
     29 N         144.2982  142.0885  161.3337 N.ar    1  UNL1       -0.2121
     30 C         144.0993  144.6447  164.3630 C.3     1  UNL1        0.4215
     31 F         144.3356  145.8600  165.2099 F       1  UNL1       -0.1657
     32 F         144.8349  143.8041  165.3640 F       1  UNL1       -0.1657
     33 F         143.3637  145.4854  163.3620 F       1  UNL1       -0.1657
@<TRIPOS>BOND
     1    18    19    1
     2    19     5    1
     3     5     6   ar
     4     6     7   ar
     5     7     8   ar
     6     8     9   ar
     7     9    10   ar
     8    10     1    1
     9     1     2    2
    10     1     3   am
    11     3    20    1
    12    20    21    1
    13    21    22    1
    14    22    24    1
    15    24    25   ar
    16    25    26   ar
    17    26    27   ar
    18    27    30    1
    19    30    31    1
    20    30    32    1
    21    30    33    1
    22    27    28   ar
    23    28    29   ar
    24    22    23    1
    25    10    11   ar
    26    11    12    1
    27    11    13   ar
    28    13    14   ar
    29    14    15    1
    30    14     5   ar
    31    13     8   ar
    32    23    20    1
    33    29    24   ar
    34     3     4    1
    35    12    16    1
    36    12    17    1
@<TRIPOS>MOLECULE
*****
 33 36 0 0 0
SMALL
GASTEIGER

@<TRIPOS>ATOM
      1 C         141.7863  144.1591  160.3578 C.2     1  UNL1        0.2532
      2 O         143.2226  143.9728  160.7481 O.2     1  UNL1       -0.2695
      3 N         140.6941  143.7781  161.3128 N.am    1  UNL1       -0.2987
      4 H         139.7514  143.9004  161.0567 H       1  UNL1        0.1498
      5 C         140.9227  146.2526  154.3183 C.ar    1  UNL1        0.2398
      6 N         139.7103  146.9116  154.9064 N.ar    1  UNL1       -0.1101
      7 N         139.4021  146.7498  156.3654 N.ar    1  UNL1       -0.1384
      8 C         140.3063  145.9290  157.2364 C.ar    1  UNL1        0.1336
      9 S         140.2590  145.5930  158.6976 S.2     1  UNL1       -0.0604
     10 C         141.4421  144.7264  159.0125 C.ar    1  UNL1        0.0971
     11 C         142.2207  144.5267  157.7461 C.ar    1  UNL1        0.0539
     12 N         143.4801  143.7247  157.6025 N.pl3   1  UNL1       -0.3564
     13 C         141.5187  145.2700  156.6484 C.ar    1  UNL1        0.0397
     14 C         141.8269  145.4318  155.1893 C.ar    1  UNL1        0.0360
     15 C         143.0393  144.7728  154.6012 C.3     1  UNL1        0.0361
     16 H         143.8665  143.2705  158.3858 H       1  UNL1        0.1424
     17 H         143.9203  143.6524  156.7248 H       1  UNL1        0.1424
     18 C         141.4156  147.7853  152.2793 C.3     1  UNL1        0.2543
     19 O         141.2308  146.4144  152.8593 O.3     1  UNL1       -0.4554
     20 C         141.0383  143.2109  162.6580 C.3     1  UNL1        0.1115
     21 C         140.7752  143.6148  164.0784 C.3     1  UNL1        0.1149
     22 N         141.5250  142.4085  164.5605 N.pl3   1  UNL1       -0.2747
     23 C         141.7881  142.0044  163.1401 C.3     1  UNL1        0.1149
     24 C         141.8692  141.8412  165.9057 C.ar    1  UNL1        0.2203
     25 N         141.1782  140.6037  166.3969 N.ar    1  UNL1       -0.2121
     26 C         141.5223  140.0364  167.7421 C.ar    1  UNL1        0.1072
     27 C         142.5576  140.7064  168.5962 C.ar    1  UNL1        0.1097
     28 C         143.2486  141.9439  168.1050 C.ar    1  UNL1        0.1072
     29 N         142.9044  142.5112  166.7598 N.ar    1  UNL1       -0.2121
     30 C         142.9017  140.1391  169.9414 C.3     1  UNL1        0.4215
     31 F         143.2458  139.5717  171.2866 F       1  UNL1       -0.1657
     32 F         141.9439  139.0083  169.7095 F       1  UNL1       -0.1657
     33 F         143.8595  141.2699  170.1733 F       1  UNL1       -0.1657
@<TRIPOS>BOND
     1    18    19    1
     2    19     5    1
     3     5     6   ar
     4     6     7   ar
     5     7     8   ar
     6     8     9   ar
     7     9    10   ar
     8    10     1    1
     9     1     2    2
    10     1     3   am
    11     3    20    1
    12    20    21    1
    13    21    22    1
    14    22    24    1
    15    24    25   ar
    16    25    26   ar
    17    26    27   ar
    18    27    30    1
    19    30    31    1
    20    30    32    1
    21    30    33    1
    22    27    28   ar
    23    28    29   ar
    24    22    23    1
    25    10    11   ar
    26    11    12    1
    27    11    13   ar
    28    13    14   ar
    29    14    15    1
    30    14     5   ar
    31    13     8   ar
    32    23    20    1
    33    29    24   ar
    34     3     4    1
    35    12    16    1
    36    12    17    1
@<TRIPOS>MOLECULE
*****
 33 36 0 0 0
SMALL
GASTEIGER

@<TRIPOS>ATOM
      1 C         142.1189  136.2619  156.8212 C.2     1  UNL1        0.2532
      2 O         140.7522  136.7841  156.4903 O.2     1  UNL1       -0.2695
      3 N         143.0348  137.0613  157.6998 N.am    1  UNL1       -0.2987
      4 H         143.9318  136.7185  157.9170 H       1  UNL1        0.1498
      5 C         144.3307  130.4375  155.1512 C.ar    1  UNL1        0.2398
      6 N         143.7567  130.7964  153.8127 N.ar    1  UNL1       -0.1101
      7 N         143.0794  132.1205  153.6178 N.ar    1  UNL1       -0.1384
      8 C         142.9761  133.0857  154.7614 C.ar    1  UNL1        0.1336
      9 S         142.3701  134.4536  154.8687 S.2     1  UNL1       -0.0604
     10 C         142.5696  134.9401  156.2735 C.ar    1  UNL1        0.0971
     11 C         143.2989  133.8728  157.0345 C.ar    1  UNL1        0.0539
     12 N         143.7056  133.9399  158.4767 N.pl3   1  UNL1       -0.3564
     13 C         143.5501  132.7267  156.0998 C.ar    1  UNL1        0.0397
     14 C         144.2274  131.4026  156.2948 C.ar    1  UNL1        0.0360
     15 C         144.8015  131.0437  157.6333 C.3     1  UNL1        0.0361
     16 H         143.4946  134.7394  159.0110 H       1  UNL1        0.1424
     17 H         144.1835  133.1843  158.8890 H       1  UNL1        0.1424
     18 C         144.1882  127.8770  155.5676 C.3     1  UNL1        0.2543
     19 O         145.0080  129.1134  155.3461 O.3     1  UNL1       -0.4554
     20 C         142.5841  138.3829  158.2475 C.3     1  UNL1        0.1115
     21 C         142.9408  139.8163  157.9869 C.3     1  UNL1        0.1149
     22 N         141.9466  140.2520  159.0220 N.pl3   1  UNL1       -0.2747
     23 C         141.5898  138.8186  159.2827 C.3     1  UNL1        0.1149
     24 C         141.4959  141.5738  159.5697 C.ar    1  UNL1        0.2203
     25 N         141.9688  142.0270  160.9191 N.ar    1  UNL1       -0.2121
     26 C         141.5181  143.3487  161.4669 C.ar    1  UNL1        0.1072
     27 C         140.5944  144.2171  160.6652 C.ar    1  UNL1        0.1097
     28 C         140.1214  143.7639  159.3158 C.ar    1  UNL1        0.1072
     29 N         140.5722  142.4422  158.7681 N.ar    1  UNL1       -0.2121
     30 C         140.1436  145.5388  161.2129 C.3     1  UNL1        0.4215
     31 F         139.6929  146.8604  161.7606 F       1  UNL1       -0.1657
     32 F         140.5003  145.0865  162.5979 F       1  UNL1       -0.1657
     33 F         139.7869  145.9911  159.8280 F       1  UNL1       -0.1657
@<TRIPOS>BOND
     1    18    19    1
     2    19     5    1
     3     5     6   ar
     4     6     7   ar
     5     7     8   ar
     6     8     9   ar
     7     9    10   ar
     8    10     1    1
     9     1     2    2
    10     1     3   am
    11     3    20    1
    12    20    21    1
    13    21    22    1
    14    22    24    1
    15    24    25   ar
    16    25    26   ar
    17    26    27   ar
    18    27    30    1
    19    30    31    1
    20    30    32    1
    21    30    33    1
    22    27    28   ar
    23    28    29   ar
    24    22    23    1
    25    10    11   ar
    26    11    12    1
    27    11    13   ar
    28    13    14   ar
    29    14    15    1
    30    14     5   ar
    31    13     8   ar
    32    23    20    1
    33    29    24   ar
    34     3     4    1
    35    12    16    1
    36    12    17    1
@<TRIPOS>MOLECULE
*****
 33 36 0 0 0
SMALL
GASTEIGER

@<TRIPOS>ATOM
      1 C         142.3071  136.2974  156.8774 C.2     1  UNL1        0.2532
      2 O         141.0591  136.9135  156.3181 O.2     1  UNL1       -0.2695
      3 N         143.0823  137.0109  157.9451 N.am    1  UNL1       -0.2987
      4 H         143.9014  136.6065  158.3121 H       1  UNL1        0.1498
      5 C         143.8702  130.6824  154.1146 C.ar    1  UNL1        0.2398
      6 N         144.7828  130.5545  155.2981 N.ar    1  UNL1       -0.1101
      7 N         144.8297  131.6420  156.3301 N.ar    1  UNL1       -0.1384
      8 C         143.9639  132.8575  156.1786 C.ar    1  UNL1        0.1336
      9 S         143.7962  134.0826  157.0277 S.2     1  UNL1       -0.0604
     10 C         142.7799  134.9677  156.3690 C.ar    1  UNL1        0.0971
     11 C         142.3195  134.2896  155.1128 C.ar    1  UNL1        0.0539
     12 N         141.3055  134.8222  154.1442 N.pl3   1  UNL1       -0.3564
     13 C         143.0513  132.9854  154.9951 C.ar    1  UNL1        0.0397
     14 C         143.0045  131.8979  153.9630 C.ar    1  UNL1        0.0360
     15 C         142.0918  132.0259  152.7795 C.3     1  UNL1        0.0361
     16 H         140.8774  135.6932  154.3091 H       1  UNL1        0.1424
     17 H         141.0680  134.3006  153.3437 H       1  UNL1        0.1424
     18 C         145.0788  128.8675  152.7020 C.3     1  UNL1        0.2543
     19 O         143.8234  129.5949  153.0825 O.3     1  UNL1       -0.4554
     20 C         142.6095  138.3405  158.4534 C.3     1  UNL1        0.1115
     21 C         141.5667  138.7920  159.4325 C.3     1  UNL1        0.1149
     22 N         141.9408  140.2209  159.1722 N.pl3   1  UNL1       -0.2747
     23 C         142.9837  139.7696  158.1931 C.3     1  UNL1        0.1149
     24 C         141.4680  141.5507  159.6806 C.ar    1  UNL1        0.2203
     25 N         140.4175  142.3113  158.9269 N.ar    1  UNL1       -0.2121
     26 C         139.9446  143.6409  159.4352 C.ar    1  UNL1        0.1072
     27 C         140.5223  144.2101  160.6972 C.ar    1  UNL1        0.1097
     28 C         141.5728  143.4495  161.4508 C.ar    1  UNL1        0.1072
     29 N         142.0456  142.1198  160.9425 N.ar    1  UNL1       -0.2121
     30 C         140.0495  145.5397  161.2054 C.3     1  UNL1        0.4215
     31 F         139.5766  146.8694  161.7137 F       1  UNL1       -0.1657
     32 F         140.2431  145.0692  162.6165 F       1  UNL1       -0.1657
     33 F         139.8558  146.0102  159.7944 F       1  UNL1       -0.1657
@<TRIPOS>BOND
     1    18    19    1
     2    19     5    1
     3     5     6   ar
     4     6     7   ar
     5     7     8   ar
     6     8     9   ar
     7     9    10   ar
     8    10     1    1
     9     1     2    2
    10     1     3   am
    11     3    20    1
    12    20    21    1
    13    21    22    1
    14    22    24    1
    15    24    25   ar
    16    25    26   ar
    17    26    27   ar
    18    27    30    1
    19    30    31    1
    20    30    32    1
    21    30    33    1
    22    27    28   ar
    23    28    29   ar
    24    22    23    1
    25    10    11   ar
    26    11    12    1
    27    11    13   ar
    28    13    14   ar
    29    14    15    1
    30    14     5   ar
    31    13     8   ar
    32    23    20    1
    33    29    24   ar
    34     3     4    1
    35    12    16    1
    36    12    17    1
@<TRIPOS>MOLECULE
*****
 33 36 0 0 0
SMALL
GASTEIGER

@<TRIPOS>ATOM
      1 C         140.1386  139.1588  159.7096 C.2     1  UNL1        0.2532
      2 O         140.3879  137.8593  160.4162 O.2     1  UNL1       -0.2695
      3 N         140.3323  139.2546  158.2253 N.am    1  UNL1       -0.2987
      4 H         140.1686  140.1075  157.7616 H       1  UNL1        0.1498
      5 C         138.1179  143.8658  163.6295 C.ar    1  UNL1        0.2398
      6 N         138.3751  144.7334  162.4333 N.ar    1  UNL1       -0.1101
      7 N         138.8874  144.1248  161.1616 N.ar    1  UNL1       -0.1384
      8 C         139.1424  142.6486  161.0861 C.ar    1  UNL1        0.1336
      9 S         139.6432  141.7720  159.9768 S.2     1  UNL1       -0.0604
     10 C         139.6955  140.3625  160.4874 C.ar    1  UNL1        0.0971
     11 C         139.2270  140.3681  161.9124 C.ar    1  UNL1        0.0539
     12 N         139.1193  139.1710  162.8098 N.pl3   1  UNL1       -0.3564
     13 C         138.8852  141.7810  162.2824 C.ar    1  UNL1        0.0397
     14 C         138.3729  142.3896  163.5541 C.ar    1  UNL1        0.0360
     15 C         138.1157  141.5219  164.7503 C.3     1  UNL1        0.0361
     16 H         139.3686  138.2798  162.4737 H       1  UNL1        0.1424
     17 H         138.7992  139.2764  163.7348 H       1  UNL1        0.1424
     18 C         138.5628  145.0992  165.8724 C.3     1  UNL1        0.2543
     19 O         137.6056  144.4744  164.9012 O.3     1  UNL1       -0.4554
     20 C         140.7753  138.0509  157.4476 C.3     1  UNL1        0.1115
     21 C         140.1526  137.1773  156.3993 C.3     1  UNL1        0.1149
     22 N         141.4018  136.3487  156.3478 N.pl3   1  UNL1       -0.2747
     23 C         142.0246  137.2223  157.3961 C.3     1  UNL1        0.1149
     24 C         141.8449  135.1450  155.5700 C.ar    1  UNL1        0.2203
     25 N         142.3792  133.9421  156.2895 N.ar    1  UNL1       -0.2121
     26 C         142.8222  132.7384  155.5119 C.ar    1  UNL1        0.1072
     27 C         142.7310  132.7376  154.0146 C.ar    1  UNL1        0.1097
     28 C         142.1968  133.9404  153.2951 C.ar    1  UNL1        0.1072
     29 N         141.7537  135.1441  154.0728 N.ar    1  UNL1       -0.2121
     30 C         143.1741  131.5339  153.2369 C.3     1  UNL1        0.4215
     31 F         143.6172  130.3302  152.4593 F       1  UNL1       -0.1657
     32 F         144.1032  131.1555  154.3520 F       1  UNL1       -0.1657
     33 F         142.2450  131.9123  152.1219 F       1  UNL1       -0.1657
@<TRIPOS>BOND
     1    18    19    1
     2    19     5    1
     3     5     6   ar
     4     6     7   ar
     5     7     8   ar
     6     8     9   ar
     7     9    10   ar
     8    10     1    1
     9     1     2    2
    10     1     3   am
    11     3    20    1
    12    20    21    1
    13    21    22    1
    14    22    24    1
    15    24    25   ar
    16    25    26   ar
    17    26    27   ar
    18    27    30    1
    19    30    31    1
    20    30    32    1
    21    30    33    1
    22    27    28   ar
    23    28    29   ar
    24    22    23    1
    25    10    11   ar
    26    11    12    1
    27    11    13   ar
    28    13    14   ar
    29    14    15    1
    30    14     5   ar
    31    13     8   ar
    32    23    20    1
    33    29    24   ar
    34     3     4    1
    35    12    16    1
    36    12    17    1
@<TRIPOS>MOLECULE
*****
 33 36 0 0 0
SMALL
GASTEIGER

@<TRIPOS>ATOM
      1 C         140.9529  142.7721  162.8212 C.2     1  UNL1        0.2532
      2 O         142.2732  142.7342  162.1102 O.2     1  UNL1       -0.2695
      3 N         139.7725  143.4356  162.1761 N.am    1  UNL1       -0.2987
      4 H         138.9059  143.4605  162.6427 H       1  UNL1        0.1498
      5 C         140.9884  140.4365  168.8335 C.ar    1  UNL1        0.2398
      6 N         139.7233  139.7624  168.3920 N.ar    1  UNL1       -0.1101
      7 N         139.2118  139.9673  166.9969 N.ar    1  UNL1       -0.1384
      8 C         139.9654  140.8463  166.0433 C.ar    1  UNL1        0.1336
      9 S         139.7074  141.2331  164.6171 S.2     1  UNL1       -0.0604
     10 C         140.8131  142.1463  164.1773 C.ar    1  UNL1        0.0971
     11 C         141.7545  142.3238  165.3315 C.ar    1  UNL1        0.0539
     12 N         143.0009  143.1583  165.3324 N.pl3   1  UNL1       -0.3564
     13 C         141.2305  141.5203  166.4848 C.ar    1  UNL1        0.0397
     14 C         141.7420  141.3155  167.8799 C.ar    1  UNL1        0.0360
     15 C         143.0072  141.9896  168.3214 C.3     1  UNL1        0.0361
     16 H         143.2634  143.6521  164.5221 H       1  UNL1        0.1424
     17 H         143.5566  143.2123  166.1433 H       1  UNL1        0.1424
     18 C         141.0104  141.1081  171.3432 C.3     1  UNL1        0.2543
     19 O         141.4999  140.2316  170.2286 O.3     1  UNL1       -0.4554
     20 C         139.9123  144.0614  160.8200 C.3     1  UNL1        0.1115
     21 C         140.3203  145.4125  160.3123 C.3     1  UNL1        0.1149
     22 N         140.1100  144.9462  158.9023 N.pl3   1  UNL1       -0.2747
     23 C         139.7020  143.5950  159.4100 C.3     1  UNL1        0.1149
     24 C         140.2498  145.5719  157.5462 C.ar    1  UNL1        0.2203
     25 N         141.2884  145.0652  156.5899 N.ar    1  UNL1       -0.2121
     26 C         141.4283  145.6908  155.2338 C.ar    1  UNL1        0.1072
     27 C         140.5295  146.8233  154.8340 C.ar    1  UNL1        0.1097
     28 C         139.4909  147.3300  155.7903 C.ar    1  UNL1        0.1072
     29 N         139.3511  146.7043  157.1464 N.ar    1  UNL1       -0.2121
     30 C         140.6693  147.4489  153.4779 C.3     1  UNL1        0.4215
     31 F         140.8092  148.0746  152.1218 F       1  UNL1       -0.1657
     32 F         141.7432  146.4603  153.1325 F       1  UNL1       -0.1657
     33 F         139.5955  148.4376  153.8233 F       1  UNL1       -0.1657
@<TRIPOS>BOND
     1    18    19    1
     2    19     5    1
     3     5     6   ar
     4     6     7   ar
     5     7     8   ar
     6     8     9   ar
     7     9    10   ar
     8    10     1    1
     9     1     2    2
    10     1     3   am
    11     3    20    1
    12    20    21    1
    13    21    22    1
    14    22    24    1
    15    24    25   ar
    16    25    26   ar
    17    26    27   ar
    18    27    30    1
    19    30    31    1
    20    30    32    1
    21    30    33    1
    22    27    28   ar
    23    28    29   ar
    24    22    23    1
    25    10    11   ar
    26    11    12    1
    27    11    13   ar
    28    13    14   ar
    29    14    15    1
    30    14     5   ar
    31    13     8   ar
    32    23    20    1
    33    29    24   ar
    34     3     4    1
    35    12    16    1
    36    12    17    1
@<TRIPOS>MOLECULE
*****
 33 36 0 0 0
SMALL
GASTEIGER

@<TRIPOS>ATOM
      1 C         143.6342  140.5487  158.4010 C.2     1  UNL1        0.2532
      2 O         143.8593  141.5999  159.4472 O.2     1  UNL1       -0.2695
      3 N         142.6933  139.4120  158.6703 N.am    1  UNL1       -0.2987
      4 H         142.5456  138.7221  157.9837 H       1  UNL1        0.1498
      5 C         147.0612  141.5208  153.0237 C.ar    1  UNL1        0.2398
      6 N         146.3224  140.3072  152.5427 N.ar    1  UNL1       -0.1101
      7 N         145.3330  139.6263  153.4414 N.ar    1  UNL1       -0.1384
      8 C         145.0824  140.1590  154.8210 C.ar    1  UNL1        0.1336
      9 S         144.1733  139.7027  155.9233 S.2     1  UNL1       -0.0604
     10 C         144.3502  140.6343  157.0856 C.ar    1  UNL1        0.0971
     11 C         145.3687  141.6663  156.7016 C.ar    1  UNL1        0.0539
     12 N         145.8501  142.7941  157.5656 N.pl3   1  UNL1       -0.3564
     13 C         145.8212  141.3726  155.3020 C.ar    1  UNL1        0.0397
     14 C         146.8106  142.0535  154.4033 C.ar    1  UNL1        0.0360
     15 C         147.5494  143.2671  154.8844 C.3     1  UNL1        0.0361
     16 H         145.4913  142.9048  158.4756 H       1  UNL1        0.1424
     17 H         146.5248  143.4236  157.2225 H       1  UNL1        0.1424
     18 C         149.5040  141.8378  152.1976 C.3     1  UNL1        0.2543
     19 O         148.0506  142.2017  152.1251 O.3     1  UNL1       -0.4554
     20 C         141.9774  139.3265  159.9856 C.3     1  UNL1        0.1115
     21 C         142.4024  139.2775  161.4232 C.3     1  UNL1        0.1149
     22 N         140.9650  139.2056  161.8457 N.pl3   1  UNL1       -0.2747
     23 C         140.5399  139.2546  160.4080 C.3     1  UNL1        0.1149
     24 C         140.2490  139.1200  163.1611 C.ar    1  UNL1        0.2203
     25 N         139.7457  137.7966  163.6564 N.ar    1  UNL1       -0.2121
     26 C         139.0298  137.7111  164.9717 C.ar    1  UNL1        0.1072
     27 C         138.8171  138.9490  165.7918 C.ar    1  UNL1        0.1097
     28 C         139.3204  140.2724  165.2965 C.ar    1  UNL1        0.1072
     29 N         140.0363  140.3579  163.9811 N.ar    1  UNL1       -0.2121
     30 C         138.1012  138.8634  167.1071 C.3     1  UNL1        0.4215
     31 F         137.3852  138.7778  168.4224 F       1  UNL1       -0.1657
     32 F         138.8628  140.0582  167.5994 F       1  UNL1       -0.1657
     33 F         137.3396  137.6686  166.6148 F       1  UNL1       -0.1657
@<TRIPOS>BOND
     1    18    19    1
     2    19     5    1
     3     5     6   ar
     4     6     7   ar
     5     7     8   ar
     6     8     9   ar
     7     9    10   ar
     8    10     1    1
     9     1     2    2
    10     1     3   am
    11     3    20    1
    12    20    21    1
    13    21    22    1
    14    22    24    1
    15    24    25   ar
    16    25    26   ar
    17    26    27   ar
    18    27    30    1
    19    30    31    1
    20    30    32    1
    21    30    33    1
    22    27    28   ar
    23    28    29   ar
    24    22    23    1
    25    10    11   ar
    26    11    12    1
    27    11    13   ar
    28    13    14   ar
    29    14    15    1
    30    14     5   ar
    31    13     8   ar
    32    23    20    1
    33    29    24   ar
    34     3     4    1
    35    12    16    1
    36    12    17    1
@<TRIPOS>MOLECULE
*****
 33 36 0 0 0
SMALL
GASTEIGER

@<TRIPOS>ATOM
      1 C         141.2373  144.1687  160.0564 C.2     1  UNL1        0.2532
      2 O         142.4412  144.3817  160.9254 O.2     1  UNL1       -0.2695
      3 N         140.0297  143.4693  160.6063 N.am    1  UNL1       -0.2987
      4 H         139.2396  143.3294  160.0359 H       1  UNL1        0.1498
      5 C         141.7997  145.7595  153.8308 C.ar    1  UNL1        0.2398
      6 N         140.7067  146.7322  154.1614 N.ar    1  UNL1       -0.1101
      7 N         140.1570  146.7974  155.5555 N.ar    1  UNL1       -0.1384
      8 C         140.7003  145.8898  156.6191 C.ar    1  UNL1        0.1336
      9 S         140.3590  145.7278  158.0707 S.2     1  UNL1       -0.0604
     10 C         141.2411  144.6550  158.6374 C.ar    1  UNL1        0.0971
     11 C         142.1275  144.1540  157.5359 C.ar    1  UNL1        0.0539
     12 N         143.1658  143.0786  157.6600 N.pl3   1  UNL1       -0.3564
     13 C         141.7932  144.9172  156.2885 C.ar    1  UNL1        0.0397
     14 C         142.3429  144.8520  154.8944 C.ar    1  UNL1        0.0360
     15 C         143.4360  143.8793  154.5639 C.3     1  UNL1        0.0361
     16 H         143.3126  142.6336  158.5259 H       1  UNL1        0.1424
     17 H         143.7006  142.8178  156.8756 H       1  UNL1        0.1424
     18 C         143.3281  146.7296  151.9673 C.3     1  UNL1        0.2543
     19 O         142.3494  145.6944  152.4367 O.3     1  UNL1       -0.4554
     20 C         140.0260  142.9829  162.0252 C.3     1  UNL1        0.1115
     21 C         139.3641  143.4254  163.2964 C.3     1  UNL1        0.1149
     22 N         140.0208  142.2951  164.0319 N.pl3   1  UNL1       -0.2747
     23 C         140.6828  141.8525  162.7607 C.3     1  UNL1        0.1149
     24 C         140.0172  141.8088  165.4509 C.ar    1  UNL1        0.2203
     25 N         140.5945  142.6651  166.5387 N.ar    1  UNL1       -0.2121
     26 C         140.5908  142.1788  167.9577 C.ar    1  UNL1        0.1072
     27 C         140.0099  140.8361  168.2889 C.ar    1  UNL1        0.1097
     28 C         139.4326  139.9797  167.2010 C.ar    1  UNL1        0.1072
     29 N         139.4363  140.4661  165.7820 N.ar    1  UNL1       -0.2121
     30 C         140.0062  140.3498  169.7078 C.3     1  UNL1        0.4215
     31 F         140.0026  139.8635  171.1267 F       1  UNL1       -0.1657
     32 F         138.8451  141.2490  170.0130 F       1  UNL1       -0.1657
     33 F         141.1673  139.4505  169.4026 F       1  UNL1       -0.1657
@<TRIPOS>BOND
     1    18    19    1
     2    19     5    1
     3     5     6   ar
     4     6     7   ar
     5     7     8   ar
     6     8     9   ar
     7     9    10   ar
     8    10     1    1
     9     1     2    2
    10     1     3   am
    11     3    20    1
    12    20    21    1
    13    21    22    1
    14    22    24    1
    15    24    25   ar
    16    25    26   ar
    17    26    27   ar
    18    27    30    1
    19    30    31    1
    20    30    32    1
    21    30    33    1
    22    27    28   ar
    23    28    29   ar
    24    22    23    1
    25    10    11   ar
    26    11    12    1
    27    11    13   ar
    28    13    14   ar
    29    14    15    1
    30    14     5   ar
    31    13     8   ar
    32    23    20    1
    33    29    24   ar
    34     3     4    1
    35    12    16    1
    36    12    17    1
