@<TRIPOS>MOLECULE
*****
 35 38 0 0 0
SMALL
GASTEIGER

@<TRIPOS>ATOM
      1 C         141.2280  144.4189  159.7694 C.ar    1  UNL1        0.0503
      2 C         141.0385  145.0205  161.1304 C.ar    1  UNL1        0.0143
      3 C         142.0180  144.7203  162.2260 C.ar    1  UNL1       -0.0029
      4 C         143.1869  143.8185  161.9607 C.ar    1  UNL1       -0.0208
      5 C         143.3764  143.2169  160.5998 C.ar    1  UNL1       -0.0029
      6 C         142.3969  143.5171  159.5041 C.ar    1  UNL1        0.0143
      7 C         140.6477  145.6085  157.5337 C.2     1  UNL1        0.2486
      8 O         142.0264  146.1977  157.4894 O.2     1  UNL1       -0.2727
      9 N         140.2484  144.7191  158.6737 N.am    1  UNL1       -0.2823
     10 H         139.3436  144.3324  158.7028 H       1  UNL1        0.1549
     11 C         138.9108  144.7922  155.7824 C.3     1  UNL1        0.0364
     12 C         139.6682  145.9087  156.4380 C.3     1  UNL1        0.1843
     13 N         139.4460  147.3254  155.9980 N.ar    1  UNL1       -0.2096
     14 N         138.6766  148.2705  156.8725 N.ar    1  UNL1       -0.1649
     15 C         138.4545  149.6872  156.4325 C.ar    1  UNL1        0.1204
     16 C         139.0018  150.1588  155.1180 C.ar    1  UNL1        0.0274
     17 C         139.7712  149.2137  154.2434 C.ar    1  UNL1        0.0638
     18 C         139.9933  147.7970  154.6834 C.ar    1  UNL1        0.2769
     19 O         140.7627  146.8519  153.8089 O.2     1  UNL1       -0.2655
     20 C         144.1664  143.5183  163.0564 C.3     1  UNL1        0.0420
     21 C         144.3056  142.1178  163.5750 C.3     1  UNL1        0.0585
     22 C         145.5841  141.3410  163.6841 C.3     1  UNL1        0.0175
     23 C         145.2594  139.9912  164.2521 C.3     1  UNL1        0.0199
     24 C         143.7802  139.9338  164.4941 C.3     1  UNL1        0.0856
     25 N         143.1907  141.2481  164.0757 N.3     1  UNL1       -0.2971
     26 H         142.7360  141.6930  164.8730 H       1  UNL1        0.1233
     27 C         143.0233  138.7669  165.0560 C.3     1  UNL1        0.1484
     28 O         143.5961  137.9812  166.1981 O.3     1  UNL1       -0.3786
     29 H         142.9851  137.2669  166.4378 H       1  UNL1        0.2108
     30 C         141.6937  138.3858  164.4757 C.ar    1  UNL1        0.0247
     31 C         140.4349  138.6518  165.2469 C.ar    1  UNL1        0.0012
     32 C         139.1052  138.2707  164.6667 C.ar    1  UNL1        0.0204
     33 C         139.0343  137.6236  163.3153 C.ar    1  UNL1        0.0989
     34 N         140.2931  137.3576  162.5442 N.ar    1  UNL1       -0.2426
     35 C         141.6228  137.7387  163.1244 C.ar    1  UNL1        0.0969
@<TRIPOS>BOND
     1    12    11    1
     2    12     7    1
     3     7     8    2
     4     7     9   am
     5     9     1    1
     6     1     2   ar
     7     2     3   ar
     8     3     4   ar
     9     4    20    1
    10    21    20    1
    11    21    22    1
    12    22    23    1
    13    24    23    1
    14    24    27    1
    15    27    28    1
    16    27    30    1
    17    30    31   ar
    18    31    32   ar
    19    32    33   ar
    20    33    34   ar
    21    34    35   ar
    22    24    25    1
    23     4     5   ar
    24     5     6   ar
    25    12    13    1
    26    13    14   ar
    27    14    15   ar
    28    15    16   ar
    29    16    17   ar
    30    17    18   ar
    31    18    19    2
    32     6     1   ar
    33    18    13   ar
    34    25    21    1
    35    35    30   ar
    36     9    10    1
    37    28    29    1
    38    25    26    1
@<TRIPOS>MOLECULE
*****
 35 38 0 0 0
SMALL
GASTEIGER

@<TRIPOS>ATOM
      1 C         140.8440  144.8033  160.4194 C.ar    1  UNL1        0.0503
      2 C         140.5004  145.4930  161.7064 C.ar    1  UNL1        0.0143
      3 C         141.3471  145.2725  162.9247 C.ar    1  UNL1       -0.0029
      4 C         142.5373  144.3622  162.8562 C.ar    1  UNL1       -0.0208
      5 C         142.8809  143.6724  161.5692 C.ar    1  UNL1       -0.0029
      6 C         142.0342  143.8930  160.3509 C.ar    1  UNL1        0.0143
      7 C         140.5838  145.6869  157.9901 C.2     1  UNL1        0.2486
      8 O         142.0170  146.1294  157.9976 O.2     1  UNL1       -0.2727
      9 N         139.9973  145.0238  159.2010 N.am    1  UNL1       -0.2823
     10 H         139.0566  144.7334  159.1961 H       1  UNL1        0.1549
     11 C         139.1908  144.7329  156.0154 C.3     1  UNL1        0.0364
     12 C         139.7371  145.9074  156.7717 C.3     1  UNL1        0.1843
     13 N         139.4368  147.3025  156.3096 N.ar    1  UNL1       -0.2096
     14 N         138.6688  148.2373  157.1963 N.ar    1  UNL1       -0.1649
     15 C         138.3685  149.6324  156.7342 C.ar    1  UNL1        0.1204
     16 C         138.8362  150.0927  155.3854 C.ar    1  UNL1        0.0274
     17 C         139.6042  149.1579  154.4986 C.ar    1  UNL1        0.0638
     18 C         139.9046  147.7628  154.9607 C.ar    1  UNL1        0.2769
     19 O         140.6726  146.8281  154.0740 O.2     1  UNL1       -0.2655
     20 C         143.3840  144.1416  164.0746 C.3     1  UNL1        0.0420
     21 C         143.2175  142.8921  164.8875 C.3     1  UNL1        0.0585
     22 C         143.2922  142.7964  166.3826 C.3     1  UNL1        0.0175
     23 C         143.0679  141.3640  166.7672 C.3     1  UNL1        0.0199
     24 C         142.8544  140.5744  165.5098 C.3     1  UNL1        0.0856
     25 N         142.9469  141.5188  164.3481 N.3     1  UNL1       -0.2971
     26 H         142.0682  141.5173  163.8300 H       1  UNL1        0.1233
     27 C         142.5942  139.0994  165.4284 C.3     1  UNL1        0.1484
     28 O         143.4982  138.1378  166.1413 O.3     1  UNL1       -0.3786
     29 H         143.1917  137.2306  165.9867 H       1  UNL1        0.2108
     30 C         141.4300  138.5859  164.6342 C.ar    1  UNL1        0.0247
     31 C         140.0302  138.8111  165.1240 C.ar    1  UNL1        0.0012
     32 C         138.8660  138.2976  164.3298 C.ar    1  UNL1        0.0204
     33 C         139.1015  137.5589  163.0458 C.ar    1  UNL1        0.0989
     34 N         140.5012  137.3336  162.5559 N.ar    1  UNL1       -0.2426
     35 C         141.6655  137.8471  163.3501 C.ar    1  UNL1        0.0969
@<TRIPOS>BOND
     1    12    11    1
     2    12     7    1
     3     7     8    2
     4     7     9   am
     5     9     1    1
     6     1     2   ar
     7     2     3   ar
     8     3     4   ar
     9     4    20    1
    10    21    20    1
    11    21    22    1
    12    22    23    1
    13    24    23    1
    14    24    27    1
    15    27    28    1
    16    27    30    1
    17    30    31   ar
    18    31    32   ar
    19    32    33   ar
    20    33    34   ar
    21    34    35   ar
    22    24    25    1
    23     4     5   ar
    24     5     6   ar
    25    12    13    1
    26    13    14   ar
    27    14    15   ar
    28    15    16   ar
    29    16    17   ar
    30    17    18   ar
    31    18    19    2
    32     6     1   ar
    33    18    13   ar
    34    25    21    1
    35    35    30   ar
    36     9    10    1
    37    28    29    1
    38    25    26    1
@<TRIPOS>MOLECULE
*****
 35 38 0 0 0
SMALL
GASTEIGER

@<TRIPOS>ATOM
      1 C         138.7314  139.2827  159.7378 C.ar    1  UNL1        0.0503
      2 C         137.6651  139.5557  160.7568 C.ar    1  UNL1        0.0143
      3 C         137.8529  139.1102  162.1767 C.ar    1  UNL1       -0.0029
      4 C         139.1071  138.3916  162.5776 C.ar    1  UNL1       -0.0208
      5 C         140.1734  138.1186  161.5586 C.ar    1  UNL1       -0.0029
      6 C         139.9856  138.5642  160.1387 C.ar    1  UNL1        0.0143
      7 C         138.7204  141.1731  157.9556 C.2     1  UNL1        0.2486
      8 O         139.0849  142.1724  159.0132 O.2     1  UNL1       -0.2727
      9 N         138.5436  139.7283  158.3179 N.am    1  UNL1       -0.2823
     10 H         138.3044  139.0725  157.6237 H       1  UNL1        0.1549
     11 C         139.5761  142.4673  155.8716 C.3     1  UNL1        0.0364
     12 C         138.5326  141.6187  156.5356 C.3     1  UNL1        0.1843
     13 N         137.3013  141.2156  155.7797 N.ar    1  UNL1       -0.2096
     14 N         137.0876  139.7789  155.4055 N.ar    1  UNL1       -0.1649
     15 C         135.8563  139.3758  154.6496 C.ar    1  UNL1        0.1204
     16 C         134.8386  140.4094  154.2679 C.ar    1  UNL1        0.0274
     17 C         135.0522  141.8463  154.6420 C.ar    1  UNL1        0.0638
     18 C         136.2835  142.2494  155.3979 C.ar    1  UNL1        0.2769
     19 O         136.4971  143.6861  155.7721 O.2     1  UNL1       -0.2655
     20 C         139.2949  137.9460  163.9976 C.3     1  UNL1        0.0420
     21 C         139.3648  138.9615  165.0993 C.3     1  UNL1        0.0585
     22 C         138.8060  138.8020  166.4821 C.3     1  UNL1        0.0175
     23 C         139.1015  140.0567  167.2491 C.3     1  UNL1        0.0199
     24 C         139.8430  140.9918  166.3403 C.3     1  UNL1        0.0856
     25 N         140.0057  140.3149  165.0116 N.3     1  UNL1       -0.2971
     26 H         140.9970  140.2149  164.7932 H       1  UNL1        0.1233
     27 C         140.3354  142.3629  166.6974 C.3     1  UNL1        0.1484
     28 O         140.0119  143.5300  165.8124 O.3     1  UNL1       -0.3786
     29 H         140.4027  144.3361  166.1846 H       1  UNL1        0.2108
     30 C         141.1511  142.5670  167.9395 C.ar    1  UNL1        0.0247
     31 C         142.5782  142.1071  167.9835 C.ar    1  UNL1        0.0012
     32 C         143.3940  142.3111  169.2255 C.ar    1  UNL1        0.0204
     33 C         142.7827  142.9751  170.4236 C.ar    1  UNL1        0.0989
     34 N         141.3556  143.4350  170.3797 N.ar    1  UNL1       -0.2426
     35 C         140.5398  143.2309  169.1376 C.ar    1  UNL1        0.0969
@<TRIPOS>BOND
     1    12    11    1
     2    12     7    1
     3     7     8    2
     4     7     9   am
     5     9     1    1
     6     1     2   ar
     7     2     3   ar
     8     3     4   ar
     9     4    20    1
    10    21    20    1
    11    21    22    1
    12    22    23    1
    13    24    23    1
    14    24    27    1
    15    27    28    1
    16    27    30    1
    17    30    31   ar
    18    31    32   ar
    19    32    33   ar
    20    33    34   ar
    21    34    35   ar
    22    24    25    1
    23     4     5   ar
    24     5     6   ar
    25    12    13    1
    26    13    14   ar
    27    14    15   ar
    28    15    16   ar
    29    16    17   ar
    30    17    18   ar
    31    18    19    2
    32     6     1   ar
    33    18    13   ar
    34    25    21    1
    35    35    30   ar
    36     9    10    1
    37    28    29    1
    38    25    26    1
@<TRIPOS>MOLECULE
*****
 35 38 0 0 0
SMALL
GASTEIGER

@<TRIPOS>ATOM
      1 C         140.7070  144.9978  160.2890 C.ar    1  UNL1        0.0503
      2 C         140.3641  145.6952  161.5720 C.ar    1  UNL1        0.0143
      3 C         141.1781  145.4390  162.8055 C.ar    1  UNL1       -0.0029
      4 C         142.3350  144.4855  162.7561 C.ar    1  UNL1       -0.0208
      5 C         142.6778  143.7881  161.4732 C.ar    1  UNL1       -0.0029
      6 C         141.8638  144.0442  160.2396 C.ar    1  UNL1        0.0143
      7 C         140.5463  145.8209  157.8299 C.2     1  UNL1        0.2486
      8 O         142.0138  146.1317  157.8381 O.2     1  UNL1       -0.2727
      9 N         139.8929  145.2539  159.0553 N.am    1  UNL1       -0.2823
     10 H         138.9298  145.0499  159.0499 H       1  UNL1        0.1549
     11 C         139.2314  144.9256  155.7758 C.3     1  UNL1        0.0364
     12 C         139.7323  146.0770  156.5963 C.3     1  UNL1        0.1843
     13 N         139.4193  147.4846  156.1832 N.ar    1  UNL1       -0.2096
     14 N         138.6439  148.3812  157.1023 N.ar    1  UNL1       -0.1649
     15 C         138.3309  149.7888  156.6892 C.ar    1  UNL1        0.1204
     16 C         138.7932  150.2998  155.3569 C.ar    1  UNL1        0.0274
     17 C         139.5687  149.4032  154.4377 C.ar    1  UNL1        0.0638
     18 C         139.8817  147.9956  154.8508 C.ar    1  UNL1        0.2769
     19 O         140.6571  147.0990  153.9316 O.2     1  UNL1       -0.2655
     20 C         143.1490  144.2293  163.9898 C.3     1  UNL1        0.0420
     21 C         143.4874  142.8229  164.3864 C.3     1  UNL1        0.0585
     22 C         144.6738  142.0352  163.9152 C.3     1  UNL1        0.0175
     23 C         144.6185  140.6827  164.5615 C.3     1  UNL1        0.0199
     24 C         143.3979  140.6345  165.4321 C.3     1  UNL1        0.0856
     25 N         142.6989  141.9572  165.3239 N.3     1  UNL1       -0.2971
     26 H         142.6483  142.3981  166.2423 H       1  UNL1        0.1233
     27 C         142.9543  139.4683  166.2647 C.3     1  UNL1        0.1484
     28 O         143.4749  138.0933  165.9674 O.3     1  UNL1       -0.3786
     29 H         143.0915  137.4599  166.5941 H       1  UNL1        0.2108
     30 C         141.9901  139.6771  167.3946 C.ar    1  UNL1        0.0247
     31 C         142.4736  139.6190  168.8134 C.ar    1  UNL1        0.0012
     32 C         141.5094  139.8278  169.9434 C.ar    1  UNL1        0.0204
     33 C         140.0619  140.0946  169.6546 C.ar    1  UNL1        0.0989
     34 N         139.5785  140.1527  168.2358 N.ar    1  UNL1       -0.2426
     35 C         140.5426  139.9439  167.1058 C.ar    1  UNL1        0.0969
@<TRIPOS>BOND
     1    12    11    1
     2    12     7    1
     3     7     8    2
     4     7     9   am
     5     9     1    1
     6     1     2   ar
     7     2     3   ar
     8     3     4   ar
     9     4    20    1
    10    21    20    1
    11    21    22    1
    12    22    23    1
    13    24    23    1
    14    24    27    1
    15    27    28    1
    16    27    30    1
    17    30    31   ar
    18    31    32   ar
    19    32    33   ar
    20    33    34   ar
    21    34    35   ar
    22    24    25    1
    23     4     5   ar
    24     5     6   ar
    25    12    13    1
    26    13    14   ar
    27    14    15   ar
    28    15    16   ar
    29    16    17   ar
    30    17    18   ar
    31    18    19    2
    32     6     1   ar
    33    18    13   ar
    34    25    21    1
    35    35    30   ar
    36     9    10    1
    37    28    29    1
    38    25    26    1
@<TRIPOS>MOLECULE
*****
 35 38 0 0 0
SMALL
GASTEIGER

@<TRIPOS>ATOM
      1 C         138.7130  139.1953  165.2343 C.ar    1  UNL1        0.0503
      2 C         138.1436  140.2335  164.3136 C.ar    1  UNL1        0.0143
      3 C         138.0774  139.9720  162.8381 C.ar    1  UNL1       -0.0029
      4 C         138.5805  138.6724  162.2833 C.ar    1  UNL1       -0.0208
      5 C         139.1499  137.6342  163.2041 C.ar    1  UNL1       -0.0029
      6 C         139.2162  137.8956  164.6796 C.ar    1  UNL1        0.0143
      7 C         139.8751  140.3134  167.2714 C.2     1  UNL1        0.2486
      8 O         140.9046  140.9088  166.3573 O.2     1  UNL1       -0.2727
      9 N         138.7793  139.4567  166.7100 N.am    1  UNL1       -0.2823
     10 H         138.1036  139.0659  167.3099 H       1  UNL1        0.1549
     11 C         138.8781  140.0297  169.6537 C.3     1  UNL1        0.0364
     12 C         139.9414  140.5748  168.7470 C.3     1  UNL1        0.1843
     13 N         141.0711  141.3813  169.3158 N.ar    1  UNL1       -0.2096
     14 N         140.8323  142.7910  169.7690 N.ar    1  UNL1       -0.1649
     15 C         141.9619  143.5975  170.3378 C.ar    1  UNL1        0.1204
     16 C         143.3303  142.9942  170.4533 C.ar    1  UNL1        0.0274
     17 C         143.5692  141.5844  170.0001 C.ar    1  UNL1        0.0638
     18 C         142.4395  140.7779  169.4313 C.ar    1  UNL1        0.2769
     19 O         142.6783  139.3681  168.9780 O.2     1  UNL1       -0.2655
     20 C         138.5142  138.4110  160.8077 C.3     1  UNL1        0.0420
     21 C         139.7168  138.6612  159.9469 C.3     1  UNL1        0.0585
     22 C         139.8311  138.3586  158.4822 C.3     1  UNL1        0.0175
     23 C         141.2012  138.7684  158.0297 C.3     1  UNL1        0.0199
     24 C         141.9338  139.3243  159.2148 C.3     1  UNL1        0.0856
     25 N         141.0164  139.2580  160.3997 N.3     1  UNL1       -0.2971
     26 H         140.8571  140.1962  160.7670 H       1  UNL1        0.1233
     27 C         143.3374  139.8534  159.2150 C.3     1  UNL1        0.1484
     28 O         144.2181  139.6439  158.0189 O.3     1  UNL1       -0.3786
     29 H         145.0860  140.0451  158.1822 H       1  UNL1        0.2108
     30 C         143.8603  140.5921  160.4111 C.ar    1  UNL1        0.0247
     31 C         144.2332  139.8390  161.6536 C.ar    1  UNL1        0.0012
     32 C         144.7561  140.5777  162.8498 C.ar    1  UNL1        0.0204
     33 C         144.9062  142.0694  162.8035 C.ar    1  UNL1        0.0989
     34 N         144.5333  142.8225  161.5610 N.ar    1  UNL1       -0.2426
     35 C         144.0104  142.0839  160.3648 C.ar    1  UNL1        0.0969
@<TRIPOS>BOND
     1    12    11    1
     2    12     7    1
     3     7     8    2
     4     7     9   am
     5     9     1    1
     6     1     2   ar
     7     2     3   ar
     8     3     4   ar
     9     4    20    1
    10    21    20    1
    11    21    22    1
    12    22    23    1
    13    24    23    1
    14    24    27    1
    15    27    28    1
    16    27    30    1
    17    30    31   ar
    18    31    32   ar
    19    32    33   ar
    20    33    34   ar
    21    34    35   ar
    22    24    25    1
    23     4     5   ar
    24     5     6   ar
    25    12    13    1
    26    13    14   ar
    27    14    15   ar
    28    15    16   ar
    29    16    17   ar
    30    17    18   ar
    31    18    19    2
    32     6     1   ar
    33    18    13   ar
    34    25    21    1
    35    35    30   ar
    36     9    10    1
    37    28    29    1
    38    25    26    1
@<TRIPOS>MOLECULE
*****
 35 38 0 0 0
SMALL
GASTEIGER

@<TRIPOS>ATOM
      1 C         138.0941  139.5978  161.2004 C.ar    1  UNL1        0.0503
      2 C         138.6150  138.3847  161.9125 C.ar    1  UNL1        0.0143
      3 C         138.7011  138.3733  163.4099 C.ar    1  UNL1       -0.0029
      4 C         138.2663  139.5750  164.1953 C.ar    1  UNL1       -0.0208
      5 C         137.7453  140.7881  163.4833 C.ar    1  UNL1       -0.0029
      6 C         137.6593  140.7995  161.9858 C.ar    1  UNL1        0.0143
      7 C         139.0692  140.2966  158.8959 C.2     1  UNL1        0.2486
      8 O         140.2165  140.9727  159.5863 O.2     1  UNL1       -0.2727
      9 N         138.0080  139.6092  159.7029 N.am    1  UNL1       -0.2823
     10 H         137.2550  139.1655  159.2497 H       1  UNL1        0.1549
     11 C         139.4366  139.1140  156.6119 C.3     1  UNL1        0.0364
     12 C         138.9831  140.3081  157.3983 C.3     1  UNL1        0.1843
     13 N         138.4435  141.5136  156.6873 N.ar    1  UNL1       -0.2096
     14 N         139.3736  142.6081  156.2549 N.ar    1  UNL1       -0.1649
     15 C         138.8340  143.8136  155.5439 C.ar    1  UNL1        0.1204
     16 C         137.3644  143.9247  155.2653 C.ar    1  UNL1        0.0274
     17 C         136.4342  142.8302  155.6977 C.ar    1  UNL1        0.0638
     18 C         136.9738  141.6246  156.4087 C.ar    1  UNL1        0.2769
     19 O         136.0437  140.5302  156.8411 O.2     1  UNL1       -0.2655
     20 C         138.3524  139.5636  165.6929 C.3     1  UNL1        0.0420
     21 C         139.5714  140.1059  166.3782 C.3     1  UNL1        0.0585
     22 C         139.8641  140.0299  167.8474 C.3     1  UNL1        0.0175
     23 C         141.1854  140.6965  168.0919 C.3     1  UNL1        0.0199
     24 C         141.7093  141.1846  166.7737 C.3     1  UNL1        0.0856
     25 N         140.7118  140.8196  165.7146 N.3     1  UNL1       -0.2971
     26 H         141.1479  140.2083  165.0243 H       1  UNL1        0.1233
     27 C         143.0035  141.9103  166.5534 C.3     1  UNL1        0.1484
     28 O         143.5965  142.7375  167.6553 O.3     1  UNL1       -0.3786
     29 H         144.4267  143.1355  167.3498 H       1  UNL1        0.2108
     30 C         143.7047  141.8087  165.2314 C.ar    1  UNL1        0.0247
     31 C         144.1494  140.4708  164.7192 C.ar    1  UNL1        0.0012
     32 C         144.8507  140.3691  163.3971 C.ar    1  UNL1        0.0204
     33 C         145.1072  141.6053  162.5872 C.ar    1  UNL1        0.0989
     34 N         144.6624  142.9432  163.0994 N.ar    1  UNL1       -0.2426
     35 C         143.9612  143.0449  164.4215 C.ar    1  UNL1        0.0969
@<TRIPOS>BOND
     1    12    11    1
     2    12     7    1
     3     7     8    2
     4     7     9   am
     5     9     1    1
     6     1     2   ar
     7     2     3   ar
     8     3     4   ar
     9     4    20    1
    10    21    20    1
    11    21    22    1
    12    22    23    1
    13    24    23    1
    14    24    27    1
    15    27    28    1
    16    27    30    1
    17    30    31   ar
    18    31    32   ar
    19    32    33   ar
    20    33    34   ar
    21    34    35   ar
    22    24    25    1
    23     4     5   ar
    24     5     6   ar
    25    12    13    1
    26    13    14   ar
    27    14    15   ar
    28    15    16   ar
    29    16    17   ar
    30    17    18   ar
    31    18    19    2
    32     6     1   ar
    33    18    13   ar
    34    25    21    1
    35    35    30   ar
    36     9    10    1
    37    28    29    1
    38    25    26    1
@<TRIPOS>MOLECULE
*****
 35 38 0 0 0
SMALL
GASTEIGER

@<TRIPOS>ATOM
      1 C         140.0949  138.2662  160.5049 C.ar    1  UNL1        0.0503
      2 C         141.0940  137.8482  161.5427 C.ar    1  UNL1        0.0143
      3 C         140.6683  137.6893  162.9723 C.ar    1  UNL1       -0.0029
      4 C         139.2437  137.9484  163.3639 C.ar    1  UNL1       -0.0208
      5 C         138.2447  138.3664  162.3260 C.ar    1  UNL1       -0.0029
      6 C         138.6703  138.5253  160.8965 C.ar    1  UNL1        0.0143
      7 C         141.1764  139.6967  158.6249 C.2     1  UNL1        0.2486
      8 O         141.4066  140.8095  159.6041 O.2     1  UNL1       -0.2727
      9 N         140.5205  138.4251  159.0753 N.am    1  UNL1       -0.2823
     10 H         140.3694  137.6948  158.4326 H       1  UNL1        0.1549
     11 C         141.5487  141.2051  156.5425 C.3     1  UNL1        0.0364
     12 C         141.6019  139.8556  157.1953 C.3     1  UNL1        0.1843
     13 N         142.0807  138.6651  156.4185 N.ar    1  UNL1       -0.2096
     14 N         141.0953  137.6529  155.9143 N.ar    1  UNL1       -0.1649
     15 C         141.5741  136.4623  155.1375 C.ar    1  UNL1        0.1204
     16 C         143.0383  136.2840  154.8651 C.ar    1  UNL1        0.0274
     17 C         144.0238  137.2962  155.3693 C.ar    1  UNL1        0.0638
     18 C         143.5450  138.4868  156.1461 C.ar    1  UNL1        0.2769
     19 O         144.5304  139.4990  156.6503 O.2     1  UNL1       -0.2655
     20 C         138.8182  137.7895  164.7935 C.3     1  UNL1        0.0420
     21 C         139.0929  138.8822  165.7837 C.3     1  UNL1        0.0585
     22 C         138.6593  138.9003  167.2195 C.3     1  UNL1        0.0175
     23 C         139.1479  140.1779  167.8352 C.3     1  UNL1        0.0199
     24 C         139.8835  140.9494  166.7798 C.3     1  UNL1        0.0856
     25 N         139.8495  140.1486  165.5119 N.3     1  UNL1       -0.2971
     26 H         140.8004  139.9271  165.2168 H       1  UNL1        0.1233
     27 C         140.5381  142.2869  166.9606 C.3     1  UNL1        0.1484
     28 O         140.3790  143.3476  165.9120 O.3     1  UNL1       -0.3786
     29 H         140.8615  144.1445  166.1824 H       1  UNL1        0.2108
     30 C         141.3518  142.5636  168.1899 C.ar    1  UNL1        0.0247
     31 C         142.7875  142.1336  168.2514 C.ar    1  UNL1        0.0012
     32 C         143.6013  142.4103  169.4807 C.ar    1  UNL1        0.0204
     33 C         142.9794  143.1170  170.6485 C.ar    1  UNL1        0.0989
     34 N         141.5436  143.5470  170.5869 N.ar    1  UNL1       -0.2426
     35 C         140.7298  143.2703  169.3576 C.ar    1  UNL1        0.0969
@<TRIPOS>BOND
     1    12    11    1
     2    12     7    1
     3     7     8    2
     4     7     9   am
     5     9     1    1
     6     1     2   ar
     7     2     3   ar
     8     3     4   ar
     9     4    20    1
    10    21    20    1
    11    21    22    1
    12    22    23    1
    13    24    23    1
    14    24    27    1
    15    27    28    1
    16    27    30    1
    17    30    31   ar
    18    31    32   ar
    19    32    33   ar
    20    33    34   ar
    21    34    35   ar
    22    24    25    1
    23     4     5   ar
    24     5     6   ar
    25    12    13    1
    26    13    14   ar
    27    14    15   ar
    28    15    16   ar
    29    16    17   ar
    30    17    18   ar
    31    18    19    2
    32     6     1   ar
    33    18    13   ar
    34    25    21    1
    35    35    30   ar
    36     9    10    1
    37    28    29    1
    38    25    26    1
@<TRIPOS>MOLECULE
*****
 35 38 0 0 0
SMALL
GASTEIGER

@<TRIPOS>ATOM
      1 C         140.5974  139.0590  159.3663 C.ar    1  UNL1        0.0503
      2 C         141.2108  140.3109  159.9198 C.ar    1  UNL1        0.0143
      3 C         140.6844  140.9046  161.1927 C.ar    1  UNL1       -0.0029
      4 C         139.5446  140.2464  161.9121 C.ar    1  UNL1       -0.0208
      5 C         138.9312  138.9945  161.3586 C.ar    1  UNL1       -0.0029
      6 C         139.4576  138.4008  160.0857 C.ar    1  UNL1        0.0143
      7 C         142.3192  137.5597  158.1263 C.2     1  UNL1        0.2486
      8 O         142.9882  137.2479  159.4322 O.2     1  UNL1       -0.2727
      9 N         141.1239  138.4652  158.0933 N.am    1  UNL1       -0.2823
     10 H         140.6848  138.6698  157.2363 H       1  UNL1        0.1549
     11 C         143.5562  137.8346  155.8582 C.3     1  UNL1        0.0364
     12 C         142.8457  136.9659  156.8533 C.3     1  UNL1        0.1843
     13 N         142.6615  135.5033  156.5756 N.ar    1  UNL1       -0.2096
     14 N         143.5354  134.4942  157.2597 N.ar    1  UNL1       -0.1649
     15 C         143.3512  133.0317  156.9820 C.ar    1  UNL1        0.1204
     16 C         142.2932  132.5783  156.0202 C.ar    1  UNL1        0.0274
     17 C         141.4193  133.5875  155.3361 C.ar    1  UNL1        0.0638
     18 C         141.6034  135.0500  155.6138 C.ar    1  UNL1        0.2769
     19 O         140.7296  136.0591  154.9298 O.2     1  UNL1       -0.2655
     20 C         139.0181  140.8402  163.1850 C.3     1  UNL1        0.0420
     21 C         139.6093  140.4346  164.5025 C.3     1  UNL1        0.0585
     22 C         140.7346  139.4631  164.7022 C.3     1  UNL1        0.0175
     23 C         140.9998  139.3572  166.1748 C.3     1  UNL1        0.0199
     24 C         140.0383  140.2633  166.8853 C.3     1  UNL1        0.0856
     25 N         139.1789  140.9291  165.8517 N.3     1  UNL1       -0.2971
     26 H         139.2967  141.9409  165.9033 H       1  UNL1        0.1233
     27 C         139.9514  140.4676  168.3687 C.3     1  UNL1        0.1484
     28 O         138.8697  139.7904  169.1570 O.3     1  UNL1       -0.3786
     29 H         138.9562  140.0267  170.0938 H       1  UNL1        0.2108
     30 C         140.9462  141.3490  169.0639 C.ar    1  UNL1        0.0247
     31 C         142.3797  140.9212  169.1732 C.ar    1  UNL1        0.0012
     32 C         143.3746  141.8027  169.8684 C.ar    1  UNL1        0.0204
     33 C         142.9359  143.1119  170.4543 C.ar    1  UNL1        0.0989
     34 N         141.5023  143.5397  170.3451 N.ar    1  UNL1       -0.2426
     35 C         140.5074  142.6583  169.6499 C.ar    1  UNL1        0.0969
@<TRIPOS>BOND
     1    12    11    1
     2    12     7    1
     3     7     8    2
     4     7     9   am
     5     9     1    1
     6     1     2   ar
     7     2     3   ar
     8     3     4   ar
     9     4    20    1
    10    21    20    1
    11    21    22    1
    12    22    23    1
    13    24    23    1
    14    24    27    1
    15    27    28    1
    16    27    30    1
    17    30    31   ar
    18    31    32   ar
    19    32    33   ar
    20    33    34   ar
    21    34    35   ar
    22    24    25    1
    23     4     5   ar
    24     5     6   ar
    25    12    13    1
    26    13    14   ar
    27    14    15   ar
    28    15    16   ar
    29    16    17   ar
    30    17    18   ar
    31    18    19    2
    32     6     1   ar
    33    18    13   ar
    34    25    21    1
    35    35    30   ar
    36     9    10    1
    37    28    29    1
    38    25    26    1
@<TRIPOS>MOLECULE
*****
 35 38 0 0 0
SMALL
GASTEIGER

@<TRIPOS>ATOM
      1 C         139.6997  138.6819  158.6598 C.ar    1  UNL1        0.0503
      2 C         138.9851  139.9657  158.3582 C.ar    1  UNL1        0.0143
      3 C         138.3096  140.7250  159.4614 C.ar    1  UNL1       -0.0029
      4 C         138.3487  140.2005  160.8662 C.ar    1  UNL1       -0.0208
      5 C         139.0633  138.9166  161.1677 C.ar    1  UNL1       -0.0029
      6 C         139.7388  138.1573  160.0645 C.ar    1  UNL1        0.0143
      7 C         141.8719  137.9157  157.4580 C.2     1  UNL1        0.2486
      8 O         142.6932  138.6683  158.4625 O.2     1  UNL1       -0.2727
      9 N         140.3752  137.9224  157.5566 N.am    1  UNL1       -0.2823
     10 H         139.8363  137.4285  156.8972 H       1  UNL1        0.1549
     11 C         143.2708  137.8960  155.2687 C.3     1  UNL1        0.0364
     12 C         142.5475  137.1563  156.3548 C.3     1  UNL1        0.1843
     13 N         142.4997  135.6571  156.3377 N.ar    1  UNL1       -0.2096
     14 N         143.4232  134.8673  157.2170 N.ar    1  UNL1       -0.1649
     15 C         143.3754  133.3681  157.1999 C.ar    1  UNL1        0.1204
     16 C         142.4041  132.6589  156.3035 C.ar    1  UNL1        0.0274
     17 C         141.4806  133.4487  155.4242 C.ar    1  UNL1        0.0638
     18 C         141.5284  134.9479  155.4412 C.ar    1  UNL1        0.2769
     19 O         140.6049  135.7378  154.5619 O.2     1  UNL1       -0.2655
     20 C         137.6731  140.9599  161.9694 C.3     1  UNL1        0.0420
     21 C         138.3046  142.2045  162.5191 C.3     1  UNL1        0.0585
     22 C         137.5890  143.3195  163.2224 C.3     1  UNL1        0.0175
     23 C         138.6046  144.3567  163.6001 C.3     1  UNL1        0.0199
     24 C         139.9480  143.8827  163.1302 C.3     1  UNL1        0.0856
     25 N         139.7625  142.5526  162.4621 N.3     1  UNL1       -0.2971
     26 H         140.3075  141.8414  162.9496 H       1  UNL1        0.1233
     27 C         141.2484  144.6110  163.2987 C.3     1  UNL1        0.1484
     28 O         141.2917  146.1058  163.1806 O.3     1  UNL1       -0.3786
     29 H         142.2013  146.4145  163.3154 H       1  UNL1        0.2108
     30 C         142.5055  143.8447  163.5854 C.ar    1  UNL1        0.0247
     31 C         142.6986  143.1938  164.9230 C.ar    1  UNL1        0.0012
     32 C         143.9557  142.4274  165.2097 C.ar    1  UNL1        0.0204
     33 C         145.0198  142.3119  164.1589 C.ar    1  UNL1        0.0989
     34 N         144.8268  142.9628  162.8213 N.ar    1  UNL1       -0.2426
     35 C         143.5697  143.7292  162.5345 C.ar    1  UNL1        0.0969
@<TRIPOS>BOND
     1    12    11    1
     2    12     7    1
     3     7     8    2
     4     7     9   am
     5     9     1    1
     6     1     2   ar
     7     2     3   ar
     8     3     4   ar
     9     4    20    1
    10    21    20    1
    11    21    22    1
    12    22    23    1
    13    24    23    1
    14    24    27    1
    15    27    28    1
    16    27    30    1
    17    30    31   ar
    18    31    32   ar
    19    32    33   ar
    20    33    34   ar
    21    34    35   ar
    22    24    25    1
    23     4     5   ar
    24     5     6   ar
    25    12    13    1
    26    13    14   ar
    27    14    15   ar
    28    15    16   ar
    29    16    17   ar
    30    17    18   ar
    31    18    19    2
    32     6     1   ar
    33    18    13   ar
    34    25    21    1
    35    35    30   ar
    36     9    10    1
    37    28    29    1
    38    25    26    1
